version 2
run Default-0-20260325-10:54:45-3083
attr configname Default
attr datetime 20260325-10:54:45
attr experiment Default
attr inifile omnetpp.ini
attr iterationvars ""
attr iterationvarsf ""
attr measurement ""
attr network RSUExampleScenario
attr processid 3083
attr repetition 0
attr replication #0
attr resultdir results
attr runnumber 0
attr seedset 0
param *.playgroundSizeX 2500m
param *.playgroundSizeY 2500m
param *.playgroundSizeZ 50m
param *.control.port 10001
param *.control.rsuX 1250
param *.control.rsuY 1250
param *.control.rsuR 2000
param *.control.stepS 0.1
param *.control.maxGoodputMbps 12
param *.control.minGoodputMbps 0.5
param *.control.alpha 2.0
param *.control.baseRttMs 10
param *.annotations.draw true
param *.obstacles.obstacles "xmldoc(\"config.xml\", \"//AnalogueModel[@type='SimpleObstacleShadowing']/obstacles\")"
param *.manager.updateInterval 1s
param *.manager.host "\"localhost\""
param *.manager.port 9999
param *.manager.autoShutdown true
param *.manager.launchConfig "xmldoc(\"erlangen.launchd.xml\")"
param *.rsu[0].mobility.x 1250
param *.rsu[0].mobility.y 1250
param *.rsu[0].mobility.z 3
param *.rsu[*].applType "\"TraCIDemoRSU11p\""
param *.rsu[*].appl.headerLength "80 bit"
param *.rsu[*].appl.sendBeacons false
param *.rsu[*].appl.dataOnSch false
param *.rsu[*].appl.beaconInterval 1s
param *.rsu[*].appl.beaconUserPriority 7
param *.rsu[*].appl.dataUserPriority 5
param *.rsu[*].nic.phy80211p.antennaOffsetZ "0 m"
param *.connectionManager.sendDirect true
param *.connectionManager.maxInterfDist 2600m
param *.connectionManager.drawMaxIntfDist false
param *.**.nic.mac1609_4.useServiceChannel false
param *.**.nic.mac1609_4.txPower 20mW
param *.**.nic.mac1609_4.bitrate 6Mbps
param *.**.nic.phy80211p.minPowerLevel -110dBm
param *.**.nic.phy80211p.useNoiseFloor true
param *.**.nic.phy80211p.noiseFloor -98dBm
param *.**.nic.phy80211p.decider "xmldoc(\"config.xml\")"
param *.**.nic.phy80211p.analogueModels "xmldoc(\"config.xml\")"
param *.**.nic.phy80211p.usePropagationDelay true
param *.**.nic.phy80211p.antenna "xmldoc(\"antenna.xml\", \"/root/Antenna[@id='monopole']\")"
param *.node[*].nic.phy80211p.antennaOffsetY "0 m"
param *.node[*].nic.phy80211p.antennaOffsetZ "1.895 m"
param *.node[*].applType "\"TraCIDemo11p\""
param *.node[*].appl.headerLength "80 bit"
param *.node[*].appl.sendBeacons false
param *.node[*].appl.dataOnSch false
param *.node[*].appl.beaconInterval 1s
param *.node[*].veinsmobility.x 0
param *.node[*].veinsmobility.y 0
param *.node[*].veinsmobility.z 0
param *.node[*].veinsmobility.setHostSpeed false
param *.node[*0].veinsmobility.accidentCount 1
param *.node[*0].veinsmobility.accidentStart 73s
param *.node[*0].veinsmobility.accidentDuration 50s

scalar RSUExampleScenario.node[0].appl generatedWSMs 1
scalar RSUExampleScenario.node[0].appl receivedWSMs 13
scalar RSUExampleScenario.node[0].appl generatedBSMs 0
scalar RSUExampleScenario.node[0].appl receivedBSMs 0
scalar RSUExampleScenario.node[0].appl generatedWSAs 0
scalar RSUExampleScenario.node[0].appl receivedWSAs 0
scalar RSUExampleScenario.node[0].nic.phy80211p busyTime 1.6789473684211e-05
scalar RSUExampleScenario.node[0].nic.mac1609_4 ReceivedUnicastPackets 0
scalar RSUExampleScenario.node[0].nic.mac1609_4 ReceivedBroadcasts 13
scalar RSUExampleScenario.node[0].nic.mac1609_4 SentPackets 1
scalar RSUExampleScenario.node[0].nic.mac1609_4 SentAcknowledgements 0
scalar RSUExampleScenario.node[0].nic.mac1609_4 RetriesExceeded 0
scalar RSUExampleScenario.node[0].nic.mac1609_4 SNIRLostPackets 9
scalar RSUExampleScenario.node[0].nic.mac1609_4 RXTXLostPackets 0
scalar RSUExampleScenario.node[0].nic.mac1609_4 TotalLostPackets 9
scalar RSUExampleScenario.node[0].nic.mac1609_4 DroppedPacketsInMac 0
scalar RSUExampleScenario.node[0].nic.mac1609_4 TooLittleTime 0
scalar RSUExampleScenario.node[0].nic.mac1609_4 TimesIntoBackoff 1
scalar RSUExampleScenario.node[0].nic.mac1609_4 SlotsBackoff 3
scalar RSUExampleScenario.node[0].nic.mac1609_4 NumInternalContention 0
scalar RSUExampleScenario.node[0].nic.mac1609_4 totalBusyTime 0.005337
scalar RSUExampleScenario.node[0].nic.mac1609_4 retriesExceeded:count 0
attr source org_car2x_veins_modules_mac_sigRetriesExceeded
scalar RSUExampleScenario.node[0].nic.mac1609_4 sentAcks:count 0
attr source org_car2x_veins_modules_mac_sigSentAck
scalar RSUExampleScenario.node[0].nic.mac1609_4 sentPackets:count 1
attr source org_car2x_veins_modules_mac_sigSentPacket
scalar RSUExampleScenario.node[0].nic.mac1609_4 collisions:count 0
attr source org_car2x_veins_modules_mac_sigCollision
scalar RSUExampleScenario.node[0].nic.mac1609_4 channelBusy:timeavg 1.7555921052632e-05
attr source org_car2x_veins_modules_mac_sigChannelBusy
scalar RSUExampleScenario.node[0].veinsmobility startTime 1
scalar RSUExampleScenario.node[0].veinsmobility totalTime 303
scalar RSUExampleScenario.node[0].veinsmobility stopTime 305
scalar RSUExampleScenario.node[0].veinsmobility minSpeed 0
scalar RSUExampleScenario.node[0].veinsmobility maxSpeed 13.999815066161
scalar RSUExampleScenario.node[0].veinsmobility totalDistance 3398.1213612963
scalar RSUExampleScenario.node[0].veinsmobility totalCO2Emission 628.22435991132
scalar RSUExampleScenario.node[1].appl generatedWSMs 1
scalar RSUExampleScenario.node[1].appl receivedWSMs 14
scalar RSUExampleScenario.node[1].appl generatedBSMs 0
scalar RSUExampleScenario.node[1].appl receivedBSMs 0
scalar RSUExampleScenario.node[1].appl generatedWSAs 0
scalar RSUExampleScenario.node[1].appl receivedWSAs 0
scalar RSUExampleScenario.node[1].nic.phy80211p busyTime 1.6844884488449e-05
scalar RSUExampleScenario.node[1].nic.mac1609_4 ReceivedUnicastPackets 0
scalar RSUExampleScenario.node[1].nic.mac1609_4 ReceivedBroadcasts 14
scalar RSUExampleScenario.node[1].nic.mac1609_4 SentPackets 1
scalar RSUExampleScenario.node[1].nic.mac1609_4 SentAcknowledgements 0
scalar RSUExampleScenario.node[1].nic.mac1609_4 RetriesExceeded 0
scalar RSUExampleScenario.node[1].nic.mac1609_4 SNIRLostPackets 8
scalar RSUExampleScenario.node[1].nic.mac1609_4 RXTXLostPackets 0
scalar RSUExampleScenario.node[1].nic.mac1609_4 TotalLostPackets 8
scalar RSUExampleScenario.node[1].nic.mac1609_4 DroppedPacketsInMac 0
scalar RSUExampleScenario.node[1].nic.mac1609_4 TooLittleTime 0
scalar RSUExampleScenario.node[1].nic.mac1609_4 TimesIntoBackoff 1
scalar RSUExampleScenario.node[1].nic.mac1609_4 SlotsBackoff 3
scalar RSUExampleScenario.node[1].nic.mac1609_4 NumInternalContention 0
scalar RSUExampleScenario.node[1].nic.mac1609_4 totalBusyTime 0.005337
scalar RSUExampleScenario.node[1].nic.mac1609_4 retriesExceeded:count 0
attr source org_car2x_veins_modules_mac_sigRetriesExceeded
scalar RSUExampleScenario.node[1].nic.mac1609_4 sentAcks:count 0
attr source org_car2x_veins_modules_mac_sigSentAck
scalar RSUExampleScenario.node[1].nic.mac1609_4 sentPackets:count 1
attr source org_car2x_veins_modules_mac_sigSentPacket
scalar RSUExampleScenario.node[1].nic.mac1609_4 collisions:count 0
attr source org_car2x_veins_modules_mac_sigCollision
scalar RSUExampleScenario.node[1].nic.mac1609_4 channelBusy:timeavg 1.7613861386139e-05
attr source org_car2x_veins_modules_mac_sigChannelBusy
scalar RSUExampleScenario.node[1].veinsmobility startTime 4
scalar RSUExampleScenario.node[1].veinsmobility totalTime 302
scalar RSUExampleScenario.node[1].veinsmobility stopTime 307
scalar RSUExampleScenario.node[1].veinsmobility minSpeed 0
scalar RSUExampleScenario.node[1].veinsmobility maxSpeed 13.999347892485
scalar RSUExampleScenario.node[1].veinsmobility totalDistance 3395.5041492237
scalar RSUExampleScenario.node[1].veinsmobility totalCO2Emission 625.39052784689
scalar RSUExampleScenario.node[2].appl generatedWSMs 1
scalar RSUExampleScenario.node[2].appl receivedWSMs 14
scalar RSUExampleScenario.node[2].appl generatedBSMs 0
scalar RSUExampleScenario.node[2].appl receivedBSMs 0
scalar RSUExampleScenario.node[2].appl generatedWSAs 0
scalar RSUExampleScenario.node[2].appl receivedWSAs 0
scalar RSUExampleScenario.node[2].nic.phy80211p busyTime 1.6900662251656e-05
scalar RSUExampleScenario.node[2].nic.mac1609_4 ReceivedUnicastPackets 0
scalar RSUExampleScenario.node[2].nic.mac1609_4 ReceivedBroadcasts 14
scalar RSUExampleScenario.node[2].nic.mac1609_4 SentPackets 1
scalar RSUExampleScenario.node[2].nic.mac1609_4 SentAcknowledgements 0
scalar RSUExampleScenario.node[2].nic.mac1609_4 RetriesExceeded 0
scalar RSUExampleScenario.node[2].nic.mac1609_4 SNIRLostPackets 8
scalar RSUExampleScenario.node[2].nic.mac1609_4 RXTXLostPackets 0
scalar RSUExampleScenario.node[2].nic.mac1609_4 TotalLostPackets 8
scalar RSUExampleScenario.node[2].nic.mac1609_4 DroppedPacketsInMac 0
scalar RSUExampleScenario.node[2].nic.mac1609_4 TooLittleTime 0
scalar RSUExampleScenario.node[2].nic.mac1609_4 TimesIntoBackoff 1
scalar RSUExampleScenario.node[2].nic.mac1609_4 SlotsBackoff 0
scalar RSUExampleScenario.node[2].nic.mac1609_4 NumInternalContention 0
scalar RSUExampleScenario.node[2].nic.mac1609_4 totalBusyTime 0.005337
scalar RSUExampleScenario.node[2].nic.mac1609_4 retriesExceeded:count 0
attr source org_car2x_veins_modules_mac_sigRetriesExceeded
scalar RSUExampleScenario.node[2].nic.mac1609_4 sentAcks:count 0
attr source org_car2x_veins_modules_mac_sigSentAck
scalar RSUExampleScenario.node[2].nic.mac1609_4 sentPackets:count 1
attr source org_car2x_veins_modules_mac_sigSentPacket
scalar RSUExampleScenario.node[2].nic.mac1609_4 collisions:count 0
attr source org_car2x_veins_modules_mac_sigCollision
scalar RSUExampleScenario.node[2].nic.mac1609_4 channelBusy:timeavg 1.7672185430464e-05
attr source org_car2x_veins_modules_mac_sigChannelBusy
scalar RSUExampleScenario.node[2].veinsmobility startTime 7
scalar RSUExampleScenario.node[2].veinsmobility totalTime 301
scalar RSUExampleScenario.node[2].veinsmobility stopTime 309
scalar RSUExampleScenario.node[2].veinsmobility minSpeed 0
scalar RSUExampleScenario.node[2].veinsmobility maxSpeed 13.999785439738
scalar RSUExampleScenario.node[2].veinsmobility totalDistance 3396.8260693865
scalar RSUExampleScenario.node[2].veinsmobility totalCO2Emission 624.80765717693
scalar RSUExampleScenario.node[3].appl generatedWSMs 1
scalar RSUExampleScenario.node[3].appl receivedWSMs 14
scalar RSUExampleScenario.node[3].appl generatedBSMs 0
scalar RSUExampleScenario.node[3].appl receivedBSMs 0
scalar RSUExampleScenario.node[3].appl generatedWSAs 0
scalar RSUExampleScenario.node[3].appl receivedWSAs 0
scalar RSUExampleScenario.node[3].nic.phy80211p busyTime 1.6956810631229e-05
scalar RSUExampleScenario.node[3].nic.mac1609_4 ReceivedUnicastPackets 0
scalar RSUExampleScenario.node[3].nic.mac1609_4 ReceivedBroadcasts 14
scalar RSUExampleScenario.node[3].nic.mac1609_4 SentPackets 1
scalar RSUExampleScenario.node[3].nic.mac1609_4 SentAcknowledgements 0
scalar RSUExampleScenario.node[3].nic.mac1609_4 RetriesExceeded 0
scalar RSUExampleScenario.node[3].nic.mac1609_4 SNIRLostPackets 8
scalar RSUExampleScenario.node[3].nic.mac1609_4 RXTXLostPackets 0
scalar RSUExampleScenario.node[3].nic.mac1609_4 TotalLostPackets 8
scalar RSUExampleScenario.node[3].nic.mac1609_4 DroppedPacketsInMac 0
scalar RSUExampleScenario.node[3].nic.mac1609_4 TooLittleTime 0
scalar RSUExampleScenario.node[3].nic.mac1609_4 TimesIntoBackoff 1
scalar RSUExampleScenario.node[3].nic.mac1609_4 SlotsBackoff 3
scalar RSUExampleScenario.node[3].nic.mac1609_4 NumInternalContention 0
scalar RSUExampleScenario.node[3].nic.mac1609_4 totalBusyTime 0.005337
scalar RSUExampleScenario.node[3].nic.mac1609_4 retriesExceeded:count 0
attr source org_car2x_veins_modules_mac_sigRetriesExceeded
scalar RSUExampleScenario.node[3].nic.mac1609_4 sentAcks:count 0
attr source org_car2x_veins_modules_mac_sigSentAck
scalar RSUExampleScenario.node[3].nic.mac1609_4 sentPackets:count 1
attr source org_car2x_veins_modules_mac_sigSentPacket
scalar RSUExampleScenario.node[3].nic.mac1609_4 collisions:count 0
attr source org_car2x_veins_modules_mac_sigCollision
scalar RSUExampleScenario.node[3].nic.mac1609_4 channelBusy:timeavg 1.7730897009967e-05
attr source org_car2x_veins_modules_mac_sigChannelBusy
scalar RSUExampleScenario.node[3].veinsmobility startTime 10
scalar RSUExampleScenario.node[3].veinsmobility totalTime 300
scalar RSUExampleScenario.node[3].veinsmobility stopTime 311
scalar RSUExampleScenario.node[3].veinsmobility minSpeed 0
scalar RSUExampleScenario.node[3].veinsmobility maxSpeed 13.999869057706
scalar RSUExampleScenario.node[3].veinsmobility totalDistance 3398.7995880853
scalar RSUExampleScenario.node[3].veinsmobility totalCO2Emission 626.15169697705
scalar RSUExampleScenario.node[4].appl generatedWSMs 1
scalar RSUExampleScenario.node[4].appl receivedWSMs 14
scalar RSUExampleScenario.node[4].appl generatedBSMs 0
scalar RSUExampleScenario.node[4].appl receivedBSMs 0
scalar RSUExampleScenario.node[4].appl generatedWSAs 0
scalar RSUExampleScenario.node[4].appl receivedWSAs 0
scalar RSUExampleScenario.node[4].nic.phy80211p busyTime 1.6900662251656e-05
scalar RSUExampleScenario.node[4].nic.mac1609_4 ReceivedUnicastPackets 0
scalar RSUExampleScenario.node[4].nic.mac1609_4 ReceivedBroadcasts 14
scalar RSUExampleScenario.node[4].nic.mac1609_4 SentPackets 1
scalar RSUExampleScenario.node[4].nic.mac1609_4 SentAcknowledgements 0
scalar RSUExampleScenario.node[4].nic.mac1609_4 RetriesExceeded 0
scalar RSUExampleScenario.node[4].nic.mac1609_4 SNIRLostPackets 8
scalar RSUExampleScenario.node[4].nic.mac1609_4 RXTXLostPackets 0
scalar RSUExampleScenario.node[4].nic.mac1609_4 TotalLostPackets 8
scalar RSUExampleScenario.node[4].nic.mac1609_4 DroppedPacketsInMac 0
scalar RSUExampleScenario.node[4].nic.mac1609_4 TooLittleTime 0
scalar RSUExampleScenario.node[4].nic.mac1609_4 TimesIntoBackoff 1
scalar RSUExampleScenario.node[4].nic.mac1609_4 SlotsBackoff 0
scalar RSUExampleScenario.node[4].nic.mac1609_4 NumInternalContention 0
scalar RSUExampleScenario.node[4].nic.mac1609_4 totalBusyTime 0.005337
scalar RSUExampleScenario.node[4].nic.mac1609_4 retriesExceeded:count 0
attr source org_car2x_veins_modules_mac_sigRetriesExceeded
scalar RSUExampleScenario.node[4].nic.mac1609_4 sentAcks:count 0
attr source org_car2x_veins_modules_mac_sigSentAck
scalar RSUExampleScenario.node[4].nic.mac1609_4 sentPackets:count 1
attr source org_car2x_veins_modules_mac_sigSentPacket
scalar RSUExampleScenario.node[4].nic.mac1609_4 collisions:count 0
attr source org_car2x_veins_modules_mac_sigCollision
scalar RSUExampleScenario.node[4].nic.mac1609_4 channelBusy:timeavg 1.7672185430464e-05
attr source org_car2x_veins_modules_mac_sigChannelBusy
scalar RSUExampleScenario.node[4].veinsmobility startTime 13
scalar RSUExampleScenario.node[4].veinsmobility totalTime 301
scalar RSUExampleScenario.node[4].veinsmobility stopTime 315
scalar RSUExampleScenario.node[4].veinsmobility minSpeed 0
scalar RSUExampleScenario.node[4].veinsmobility maxSpeed 13.999121439538
scalar RSUExampleScenario.node[4].veinsmobility totalDistance 3396.2643883148
scalar RSUExampleScenario.node[4].veinsmobility totalCO2Emission 617.59145351079
scalar RSUExampleScenario.node[5].appl generatedWSMs 1
scalar RSUExampleScenario.node[5].appl receivedWSMs 14
scalar RSUExampleScenario.node[5].appl generatedBSMs 0
scalar RSUExampleScenario.node[5].appl receivedBSMs 0
scalar RSUExampleScenario.node[5].appl generatedWSAs 0
scalar RSUExampleScenario.node[5].appl receivedWSAs 0
scalar RSUExampleScenario.node[5].nic.phy80211p busyTime 1.7727574750831e-05
scalar RSUExampleScenario.node[5].nic.mac1609_4 ReceivedUnicastPackets 0
scalar RSUExampleScenario.node[5].nic.mac1609_4 ReceivedBroadcasts 14
scalar RSUExampleScenario.node[5].nic.mac1609_4 SentPackets 1
scalar RSUExampleScenario.node[5].nic.mac1609_4 SentAcknowledgements 0
scalar RSUExampleScenario.node[5].nic.mac1609_4 RetriesExceeded 0
scalar RSUExampleScenario.node[5].nic.mac1609_4 SNIRLostPackets 9
scalar RSUExampleScenario.node[5].nic.mac1609_4 RXTXLostPackets 0
scalar RSUExampleScenario.node[5].nic.mac1609_4 TotalLostPackets 9
scalar RSUExampleScenario.node[5].nic.mac1609_4 DroppedPacketsInMac 0
scalar RSUExampleScenario.node[5].nic.mac1609_4 TooLittleTime 0
scalar RSUExampleScenario.node[5].nic.mac1609_4 TimesIntoBackoff 1
scalar RSUExampleScenario.node[5].nic.mac1609_4 SlotsBackoff 2
scalar RSUExampleScenario.node[5].nic.mac1609_4 NumInternalContention 0
scalar RSUExampleScenario.node[5].nic.mac1609_4 totalBusyTime 0.005569
scalar RSUExampleScenario.node[5].nic.mac1609_4 retriesExceeded:count 0
attr source org_car2x_veins_modules_mac_sigRetriesExceeded
scalar RSUExampleScenario.node[5].nic.mac1609_4 sentAcks:count 0
attr source org_car2x_veins_modules_mac_sigSentAck
scalar RSUExampleScenario.node[5].nic.mac1609_4 sentPackets:count 1
attr source org_car2x_veins_modules_mac_sigSentPacket
scalar RSUExampleScenario.node[5].nic.mac1609_4 collisions:count 0
attr source org_car2x_veins_modules_mac_sigCollision
scalar RSUExampleScenario.node[5].nic.mac1609_4 channelBusy:timeavg 1.8501661129568e-05
attr source org_car2x_veins_modules_mac_sigChannelBusy
scalar RSUExampleScenario.node[5].veinsmobility startTime 16
scalar RSUExampleScenario.node[5].veinsmobility totalTime 300
scalar RSUExampleScenario.node[5].veinsmobility stopTime 317
scalar RSUExampleScenario.node[5].veinsmobility minSpeed 0
scalar RSUExampleScenario.node[5].veinsmobility maxSpeed 13.999107769125
scalar RSUExampleScenario.node[5].veinsmobility totalDistance 3398.7634245274
scalar RSUExampleScenario.node[5].veinsmobility totalCO2Emission 620.46606165038
scalar RSUExampleScenario.node[6].appl generatedWSMs 1
scalar RSUExampleScenario.node[6].appl receivedWSMs 15
scalar RSUExampleScenario.node[6].appl generatedBSMs 0
scalar RSUExampleScenario.node[6].appl receivedBSMs 0
scalar RSUExampleScenario.node[6].appl generatedWSAs 0
scalar RSUExampleScenario.node[6].appl receivedWSAs 0
scalar RSUExampleScenario.node[6].nic.phy80211p busyTime 1.856e-05
scalar RSUExampleScenario.node[6].nic.mac1609_4 ReceivedUnicastPackets 0
scalar RSUExampleScenario.node[6].nic.mac1609_4 ReceivedBroadcasts 15
scalar RSUExampleScenario.node[6].nic.mac1609_4 SentPackets 1
scalar RSUExampleScenario.node[6].nic.mac1609_4 SentAcknowledgements 0
scalar RSUExampleScenario.node[6].nic.mac1609_4 RetriesExceeded 0
scalar RSUExampleScenario.node[6].nic.mac1609_4 SNIRLostPackets 9
scalar RSUExampleScenario.node[6].nic.mac1609_4 RXTXLostPackets 0
scalar RSUExampleScenario.node[6].nic.mac1609_4 TotalLostPackets 9
scalar RSUExampleScenario.node[6].nic.mac1609_4 DroppedPacketsInMac 0
scalar RSUExampleScenario.node[6].nic.mac1609_4 TooLittleTime 0
scalar RSUExampleScenario.node[6].nic.mac1609_4 TimesIntoBackoff 1
scalar RSUExampleScenario.node[6].nic.mac1609_4 SlotsBackoff 3
scalar RSUExampleScenario.node[6].nic.mac1609_4 NumInternalContention 0
scalar RSUExampleScenario.node[6].nic.mac1609_4 totalBusyTime 0.005801
scalar RSUExampleScenario.node[6].nic.mac1609_4 retriesExceeded:count 0
attr source org_car2x_veins_modules_mac_sigRetriesExceeded
scalar RSUExampleScenario.node[6].nic.mac1609_4 sentAcks:count 0
attr source org_car2x_veins_modules_mac_sigSentAck
scalar RSUExampleScenario.node[6].nic.mac1609_4 sentPackets:count 1
attr source org_car2x_veins_modules_mac_sigSentPacket
scalar RSUExampleScenario.node[6].nic.mac1609_4 collisions:count 0
attr source org_car2x_veins_modules_mac_sigCollision
scalar RSUExampleScenario.node[6].nic.mac1609_4 channelBusy:timeavg 1.9336666666667e-05
attr source org_car2x_veins_modules_mac_sigChannelBusy
scalar RSUExampleScenario.node[6].veinsmobility startTime 19
scalar RSUExampleScenario.node[6].veinsmobility totalTime 299
scalar RSUExampleScenario.node[6].veinsmobility stopTime 319
scalar RSUExampleScenario.node[6].veinsmobility minSpeed 0
scalar RSUExampleScenario.node[6].veinsmobility maxSpeed 13.999044324374
scalar RSUExampleScenario.node[6].veinsmobility totalDistance 3400.1895624951
scalar RSUExampleScenario.node[6].veinsmobility totalCO2Emission 617.52684790294
scalar RSUExampleScenario.node[8].appl generatedWSMs 1
scalar RSUExampleScenario.node[8].appl receivedWSMs 23
scalar RSUExampleScenario.node[8].appl generatedBSMs 0
scalar RSUExampleScenario.node[8].appl receivedBSMs 0
scalar RSUExampleScenario.node[8].appl generatedWSAs 0
scalar RSUExampleScenario.node[8].appl receivedWSAs 0
scalar RSUExampleScenario.node[8].nic.phy80211p busyTime 2.4379661016949e-05
scalar RSUExampleScenario.node[8].nic.mac1609_4 ReceivedUnicastPackets 0
scalar RSUExampleScenario.node[8].nic.mac1609_4 ReceivedBroadcasts 23
scalar RSUExampleScenario.node[8].nic.mac1609_4 SentPackets 1
scalar RSUExampleScenario.node[8].nic.mac1609_4 SentAcknowledgements 0
scalar RSUExampleScenario.node[8].nic.mac1609_4 RetriesExceeded 0
scalar RSUExampleScenario.node[8].nic.mac1609_4 SNIRLostPackets 8
scalar RSUExampleScenario.node[8].nic.mac1609_4 RXTXLostPackets 0
scalar RSUExampleScenario.node[8].nic.mac1609_4 TotalLostPackets 8
scalar RSUExampleScenario.node[8].nic.mac1609_4 DroppedPacketsInMac 0
scalar RSUExampleScenario.node[8].nic.mac1609_4 TooLittleTime 0
scalar RSUExampleScenario.node[8].nic.mac1609_4 TimesIntoBackoff 1
scalar RSUExampleScenario.node[8].nic.mac1609_4 SlotsBackoff 1
scalar RSUExampleScenario.node[8].nic.mac1609_4 NumInternalContention 0
scalar RSUExampleScenario.node[8].nic.mac1609_4 totalBusyTime 0.007425
scalar RSUExampleScenario.node[8].nic.mac1609_4 retriesExceeded:count 0
attr source org_car2x_veins_modules_mac_sigRetriesExceeded
scalar RSUExampleScenario.node[8].nic.mac1609_4 sentAcks:count 0
attr source org_car2x_veins_modules_mac_sigSentAck
scalar RSUExampleScenario.node[8].nic.mac1609_4 sentPackets:count 1
attr source org_car2x_veins_modules_mac_sigSentPacket
scalar RSUExampleScenario.node[8].nic.mac1609_4 collisions:count 0
attr source org_car2x_veins_modules_mac_sigCollision
scalar RSUExampleScenario.node[8].nic.mac1609_4 channelBusy:timeavg 2.5169491525424e-05
attr source org_car2x_veins_modules_mac_sigChannelBusy
scalar RSUExampleScenario.node[8].veinsmobility startTime 25
scalar RSUExampleScenario.node[8].veinsmobility totalTime 294
scalar RSUExampleScenario.node[8].veinsmobility stopTime 320
scalar RSUExampleScenario.node[8].veinsmobility minSpeed 0
scalar RSUExampleScenario.node[8].veinsmobility maxSpeed 13.999109892272
scalar RSUExampleScenario.node[8].veinsmobility totalDistance 3390.9030394776
scalar RSUExampleScenario.node[8].veinsmobility totalCO2Emission 600.86223620213
scalar RSUExampleScenario.node[9].appl generatedWSMs 1
scalar RSUExampleScenario.node[9].appl receivedWSMs 26
scalar RSUExampleScenario.node[9].appl generatedBSMs 0
scalar RSUExampleScenario.node[9].appl receivedBSMs 0
scalar RSUExampleScenario.node[9].appl generatedWSAs 0
scalar RSUExampleScenario.node[9].appl receivedWSAs 0
scalar RSUExampleScenario.node[9].nic.phy80211p busyTime 2.4462585034014e-05
scalar RSUExampleScenario.node[9].nic.mac1609_4 ReceivedUnicastPackets 0
scalar RSUExampleScenario.node[9].nic.mac1609_4 ReceivedBroadcasts 26
scalar RSUExampleScenario.node[9].nic.mac1609_4 SentPackets 1
scalar RSUExampleScenario.node[9].nic.mac1609_4 SentAcknowledgements 0
scalar RSUExampleScenario.node[9].nic.mac1609_4 RetriesExceeded 0
scalar RSUExampleScenario.node[9].nic.mac1609_4 SNIRLostPackets 5
scalar RSUExampleScenario.node[9].nic.mac1609_4 RXTXLostPackets 0
scalar RSUExampleScenario.node[9].nic.mac1609_4 TotalLostPackets 5
scalar RSUExampleScenario.node[9].nic.mac1609_4 DroppedPacketsInMac 0
scalar RSUExampleScenario.node[9].nic.mac1609_4 TooLittleTime 0
scalar RSUExampleScenario.node[9].nic.mac1609_4 TimesIntoBackoff 1
scalar RSUExampleScenario.node[9].nic.mac1609_4 SlotsBackoff 1
scalar RSUExampleScenario.node[9].nic.mac1609_4 NumInternalContention 0
scalar RSUExampleScenario.node[9].nic.mac1609_4 totalBusyTime 0.007425
scalar RSUExampleScenario.node[9].nic.mac1609_4 retriesExceeded:count 0
attr source org_car2x_veins_modules_mac_sigRetriesExceeded
scalar RSUExampleScenario.node[9].nic.mac1609_4 sentAcks:count 0
attr source org_car2x_veins_modules_mac_sigSentAck
scalar RSUExampleScenario.node[9].nic.mac1609_4 sentPackets:count 1
attr source org_car2x_veins_modules_mac_sigSentPacket
scalar RSUExampleScenario.node[9].nic.mac1609_4 collisions:count 0
attr source org_car2x_veins_modules_mac_sigCollision
scalar RSUExampleScenario.node[9].nic.mac1609_4 channelBusy:timeavg 2.5255102040816e-05
attr source org_car2x_veins_modules_mac_sigChannelBusy
scalar RSUExampleScenario.node[9].veinsmobility startTime 28
scalar RSUExampleScenario.node[9].veinsmobility totalTime 293
scalar RSUExampleScenario.node[9].veinsmobility stopTime 322
scalar RSUExampleScenario.node[9].veinsmobility minSpeed 0
scalar RSUExampleScenario.node[9].veinsmobility maxSpeed 13.999562605268
scalar RSUExampleScenario.node[9].veinsmobility totalDistance 3393.861430137
scalar RSUExampleScenario.node[9].veinsmobility totalCO2Emission 600.98249863082
scalar RSUExampleScenario.node[7].appl generatedWSMs 1
scalar RSUExampleScenario.node[7].appl receivedWSMs 20
scalar RSUExampleScenario.node[7].appl generatedBSMs 0
scalar RSUExampleScenario.node[7].appl receivedBSMs 0
scalar RSUExampleScenario.node[7].appl generatedWSAs 0
scalar RSUExampleScenario.node[7].appl receivedWSAs 0
scalar RSUExampleScenario.node[7].nic.phy80211p busyTime 2.1773462783172e-05
scalar RSUExampleScenario.node[7].nic.mac1609_4 ReceivedUnicastPackets 0
scalar RSUExampleScenario.node[7].nic.mac1609_4 ReceivedBroadcasts 20
scalar RSUExampleScenario.node[7].nic.mac1609_4 SentPackets 1
scalar RSUExampleScenario.node[7].nic.mac1609_4 SentAcknowledgements 0
scalar RSUExampleScenario.node[7].nic.mac1609_4 RetriesExceeded 0
scalar RSUExampleScenario.node[7].nic.mac1609_4 SNIRLostPackets 9
scalar RSUExampleScenario.node[7].nic.mac1609_4 RXTXLostPackets 0
scalar RSUExampleScenario.node[7].nic.mac1609_4 TotalLostPackets 9
scalar RSUExampleScenario.node[7].nic.mac1609_4 DroppedPacketsInMac 0
scalar RSUExampleScenario.node[7].nic.mac1609_4 TooLittleTime 0
scalar RSUExampleScenario.node[7].nic.mac1609_4 TimesIntoBackoff 1
scalar RSUExampleScenario.node[7].nic.mac1609_4 SlotsBackoff 1
scalar RSUExampleScenario.node[7].nic.mac1609_4 NumInternalContention 0
scalar RSUExampleScenario.node[7].nic.mac1609_4 totalBusyTime 0.006961
scalar RSUExampleScenario.node[7].nic.mac1609_4 retriesExceeded:count 0
attr source org_car2x_veins_modules_mac_sigRetriesExceeded
scalar RSUExampleScenario.node[7].nic.mac1609_4 sentAcks:count 0
attr source org_car2x_veins_modules_mac_sigSentAck
scalar RSUExampleScenario.node[7].nic.mac1609_4 sentPackets:count 1
attr source org_car2x_veins_modules_mac_sigSentPacket
scalar RSUExampleScenario.node[7].nic.mac1609_4 collisions:count 0
attr source org_car2x_veins_modules_mac_sigCollision
scalar RSUExampleScenario.node[7].nic.mac1609_4 channelBusy:timeavg 2.2527508090615e-05
attr source org_car2x_veins_modules_mac_sigChannelBusy
scalar RSUExampleScenario.node[7].veinsmobility startTime 22
scalar RSUExampleScenario.node[7].veinsmobility totalTime 308
scalar RSUExampleScenario.node[7].veinsmobility stopTime 331
scalar RSUExampleScenario.node[7].veinsmobility minSpeed 0
scalar RSUExampleScenario.node[7].veinsmobility maxSpeed 13.999889892975
scalar RSUExampleScenario.node[7].veinsmobility totalDistance 3393.8089192301
scalar RSUExampleScenario.node[7].veinsmobility totalCO2Emission 608.82518608919
scalar RSUExampleScenario.node[22].appl generatedWSMs 1
scalar RSUExampleScenario.node[22].appl receivedWSMs 21
scalar RSUExampleScenario.node[22].appl generatedBSMs 0
scalar RSUExampleScenario.node[22].appl receivedBSMs 0
scalar RSUExampleScenario.node[22].appl generatedWSAs 0
scalar RSUExampleScenario.node[22].appl receivedWSAs 0
scalar RSUExampleScenario.node[22].nic.phy80211p busyTime 1.7911764705882e-05
scalar RSUExampleScenario.node[22].nic.mac1609_4 ReceivedUnicastPackets 0
scalar RSUExampleScenario.node[22].nic.mac1609_4 ReceivedBroadcasts 21
scalar RSUExampleScenario.node[22].nic.mac1609_4 SentPackets 1
scalar RSUExampleScenario.node[22].nic.mac1609_4 SentAcknowledgements 0
scalar RSUExampleScenario.node[22].nic.mac1609_4 RetriesExceeded 0
scalar RSUExampleScenario.node[22].nic.mac1609_4 SNIRLostPackets 0
scalar RSUExampleScenario.node[22].nic.mac1609_4 RXTXLostPackets 0
scalar RSUExampleScenario.node[22].nic.mac1609_4 TotalLostPackets 0
scalar RSUExampleScenario.node[22].nic.mac1609_4 DroppedPacketsInMac 0
scalar RSUExampleScenario.node[22].nic.mac1609_4 TooLittleTime 0
scalar RSUExampleScenario.node[22].nic.mac1609_4 TimesIntoBackoff 1
scalar RSUExampleScenario.node[22].nic.mac1609_4 SlotsBackoff 0
scalar RSUExampleScenario.node[22].nic.mac1609_4 NumInternalContention 0
scalar RSUExampleScenario.node[22].nic.mac1609_4 totalBusyTime 0.005105
scalar RSUExampleScenario.node[22].nic.mac1609_4 retriesExceeded:count 0
attr source org_car2x_veins_modules_mac_sigRetriesExceeded
scalar RSUExampleScenario.node[22].nic.mac1609_4 sentAcks:count 0
attr source org_car2x_veins_modules_mac_sigSentAck
scalar RSUExampleScenario.node[22].nic.mac1609_4 sentPackets:count 1
attr source org_car2x_veins_modules_mac_sigSentPacket
scalar RSUExampleScenario.node[22].nic.mac1609_4 collisions:count 0
attr source org_car2x_veins_modules_mac_sigCollision
scalar RSUExampleScenario.node[22].nic.mac1609_4 channelBusy:timeavg 1.8768382352941e-05
attr source org_car2x_veins_modules_mac_sigChannelBusy
scalar RSUExampleScenario.node[22].veinsmobility startTime 67
scalar RSUExampleScenario.node[22].veinsmobility totalTime 271
scalar RSUExampleScenario.node[22].veinsmobility stopTime 339
scalar RSUExampleScenario.node[22].veinsmobility minSpeed 4.1832233416825
scalar RSUExampleScenario.node[22].veinsmobility maxSpeed 13.99910178012
scalar RSUExampleScenario.node[22].veinsmobility totalDistance 3253.0533170732
scalar RSUExampleScenario.node[22].veinsmobility totalCO2Emission 623.66385878169
scalar RSUExampleScenario.node[10].appl generatedWSMs 1
scalar RSUExampleScenario.node[10].appl receivedWSMs 34
scalar RSUExampleScenario.node[10].appl generatedBSMs 0
scalar RSUExampleScenario.node[10].appl receivedBSMs 0
scalar RSUExampleScenario.node[10].appl generatedWSAs 0
scalar RSUExampleScenario.node[10].appl receivedWSAs 0
scalar RSUExampleScenario.node[10].nic.phy80211p busyTime 2.5445161290323e-05
scalar RSUExampleScenario.node[10].nic.mac1609_4 ReceivedUnicastPackets 0
scalar RSUExampleScenario.node[10].nic.mac1609_4 ReceivedBroadcasts 34
scalar RSUExampleScenario.node[10].nic.mac1609_4 SentPackets 1
scalar RSUExampleScenario.node[10].nic.mac1609_4 SentAcknowledgements 0
scalar RSUExampleScenario.node[10].nic.mac1609_4 RetriesExceeded 0
scalar RSUExampleScenario.node[10].nic.mac1609_4 SNIRLostPackets 0
scalar RSUExampleScenario.node[10].nic.mac1609_4 RXTXLostPackets 0
scalar RSUExampleScenario.node[10].nic.mac1609_4 TotalLostPackets 0
scalar RSUExampleScenario.node[10].nic.mac1609_4 DroppedPacketsInMac 0
scalar RSUExampleScenario.node[10].nic.mac1609_4 TooLittleTime 0
scalar RSUExampleScenario.node[10].nic.mac1609_4 TimesIntoBackoff 1
scalar RSUExampleScenario.node[10].nic.mac1609_4 SlotsBackoff 0
scalar RSUExampleScenario.node[10].nic.mac1609_4 NumInternalContention 0
scalar RSUExampleScenario.node[10].nic.mac1609_4 totalBusyTime 0.008121
scalar RSUExampleScenario.node[10].nic.mac1609_4 retriesExceeded:count 0
attr source org_car2x_veins_modules_mac_sigRetriesExceeded
scalar RSUExampleScenario.node[10].nic.mac1609_4 sentAcks:count 0
attr source org_car2x_veins_modules_mac_sigSentAck
scalar RSUExampleScenario.node[10].nic.mac1609_4 sentPackets:count 1
attr source org_car2x_veins_modules_mac_sigSentPacket
scalar RSUExampleScenario.node[10].nic.mac1609_4 collisions:count 0
attr source org_car2x_veins_modules_mac_sigCollision
scalar RSUExampleScenario.node[10].nic.mac1609_4 channelBusy:timeavg 2.6196774193548e-05
attr source org_car2x_veins_modules_mac_sigChannelBusy
scalar RSUExampleScenario.node[10].veinsmobility startTime 31
scalar RSUExampleScenario.node[10].veinsmobility totalTime 309
scalar RSUExampleScenario.node[10].veinsmobility stopTime 341
scalar RSUExampleScenario.node[10].veinsmobility minSpeed 0
scalar RSUExampleScenario.node[10].veinsmobility maxSpeed 13.999607604952
scalar RSUExampleScenario.node[10].veinsmobility totalDistance 3396.773338175
scalar RSUExampleScenario.node[10].veinsmobility totalCO2Emission 639.43992571708
scalar RSUExampleScenario.node[11].appl generatedWSMs 1
scalar RSUExampleScenario.node[11].appl receivedWSMs 36
scalar RSUExampleScenario.node[11].appl generatedBSMs 0
scalar RSUExampleScenario.node[11].appl receivedBSMs 0
scalar RSUExampleScenario.node[11].appl generatedWSAs 0
scalar RSUExampleScenario.node[11].appl receivedWSAs 0
scalar RSUExampleScenario.node[11].nic.phy80211p busyTime 2.7690322580645e-05
scalar RSUExampleScenario.node[11].nic.mac1609_4 ReceivedUnicastPackets 0
scalar RSUExampleScenario.node[11].nic.mac1609_4 ReceivedBroadcasts 36
scalar RSUExampleScenario.node[11].nic.mac1609_4 SentPackets 1
scalar RSUExampleScenario.node[11].nic.mac1609_4 SentAcknowledgements 0
scalar RSUExampleScenario.node[11].nic.mac1609_4 RetriesExceeded 0
scalar RSUExampleScenario.node[11].nic.mac1609_4 SNIRLostPackets 1
scalar RSUExampleScenario.node[11].nic.mac1609_4 RXTXLostPackets 0
scalar RSUExampleScenario.node[11].nic.mac1609_4 TotalLostPackets 1
scalar RSUExampleScenario.node[11].nic.mac1609_4 DroppedPacketsInMac 0
scalar RSUExampleScenario.node[11].nic.mac1609_4 TooLittleTime 0
scalar RSUExampleScenario.node[11].nic.mac1609_4 TimesIntoBackoff 1
scalar RSUExampleScenario.node[11].nic.mac1609_4 SlotsBackoff 2
scalar RSUExampleScenario.node[11].nic.mac1609_4 NumInternalContention 0
scalar RSUExampleScenario.node[11].nic.mac1609_4 totalBusyTime 0.008817
scalar RSUExampleScenario.node[11].nic.mac1609_4 retriesExceeded:count 0
attr source org_car2x_veins_modules_mac_sigRetriesExceeded
scalar RSUExampleScenario.node[11].nic.mac1609_4 sentAcks:count 0
attr source org_car2x_veins_modules_mac_sigSentAck
scalar RSUExampleScenario.node[11].nic.mac1609_4 sentPackets:count 1
attr source org_car2x_veins_modules_mac_sigSentPacket
scalar RSUExampleScenario.node[11].nic.mac1609_4 collisions:count 0
attr source org_car2x_veins_modules_mac_sigCollision
scalar RSUExampleScenario.node[11].nic.mac1609_4 channelBusy:timeavg 2.8441935483871e-05
attr source org_car2x_veins_modules_mac_sigChannelBusy
scalar RSUExampleScenario.node[11].veinsmobility startTime 34
scalar RSUExampleScenario.node[11].veinsmobility totalTime 309
scalar RSUExampleScenario.node[11].veinsmobility stopTime 344
scalar RSUExampleScenario.node[11].veinsmobility minSpeed 0
scalar RSUExampleScenario.node[11].veinsmobility maxSpeed 13.998078278936
scalar RSUExampleScenario.node[11].veinsmobility totalDistance 3394.1828741749
scalar RSUExampleScenario.node[11].veinsmobility totalCO2Emission 624.53327328213
scalar RSUExampleScenario.node[21].appl generatedWSMs 1
scalar RSUExampleScenario.node[21].appl receivedWSMs 22
scalar RSUExampleScenario.node[21].appl generatedBSMs 0
scalar RSUExampleScenario.node[21].appl receivedBSMs 0
scalar RSUExampleScenario.node[21].appl generatedWSAs 0
scalar RSUExampleScenario.node[21].appl receivedWSAs 0
scalar RSUExampleScenario.node[21].nic.phy80211p busyTime 1.6956810631229e-05
scalar RSUExampleScenario.node[21].nic.mac1609_4 ReceivedUnicastPackets 0
scalar RSUExampleScenario.node[21].nic.mac1609_4 ReceivedBroadcasts 22
scalar RSUExampleScenario.node[21].nic.mac1609_4 SentPackets 1
scalar RSUExampleScenario.node[21].nic.mac1609_4 SentAcknowledgements 0
scalar RSUExampleScenario.node[21].nic.mac1609_4 RetriesExceeded 0
scalar RSUExampleScenario.node[21].nic.mac1609_4 SNIRLostPackets 0
scalar RSUExampleScenario.node[21].nic.mac1609_4 RXTXLostPackets 0
scalar RSUExampleScenario.node[21].nic.mac1609_4 TotalLostPackets 0
scalar RSUExampleScenario.node[21].nic.mac1609_4 DroppedPacketsInMac 0
scalar RSUExampleScenario.node[21].nic.mac1609_4 TooLittleTime 0
scalar RSUExampleScenario.node[21].nic.mac1609_4 TimesIntoBackoff 1
scalar RSUExampleScenario.node[21].nic.mac1609_4 SlotsBackoff 2
scalar RSUExampleScenario.node[21].nic.mac1609_4 NumInternalContention 0
scalar RSUExampleScenario.node[21].nic.mac1609_4 totalBusyTime 0.005337
scalar RSUExampleScenario.node[21].nic.mac1609_4 retriesExceeded:count 0
attr source org_car2x_veins_modules_mac_sigRetriesExceeded
scalar RSUExampleScenario.node[21].nic.mac1609_4 sentAcks:count 0
attr source org_car2x_veins_modules_mac_sigSentAck
scalar RSUExampleScenario.node[21].nic.mac1609_4 sentPackets:count 1
attr source org_car2x_veins_modules_mac_sigSentPacket
scalar RSUExampleScenario.node[21].nic.mac1609_4 collisions:count 0
attr source org_car2x_veins_modules_mac_sigCollision
scalar RSUExampleScenario.node[21].nic.mac1609_4 channelBusy:timeavg 1.7730897009967e-05
attr source org_car2x_veins_modules_mac_sigChannelBusy
scalar RSUExampleScenario.node[21].veinsmobility startTime 64
scalar RSUExampleScenario.node[21].veinsmobility totalTime 300
scalar RSUExampleScenario.node[21].veinsmobility stopTime 365
scalar RSUExampleScenario.node[21].veinsmobility minSpeed 4.2842987557744
scalar RSUExampleScenario.node[21].veinsmobility maxSpeed 13.995905705239
scalar RSUExampleScenario.node[21].veinsmobility totalDistance 3342.3839454833
scalar RSUExampleScenario.node[21].veinsmobility totalCO2Emission 631.7886919352
scalar RSUExampleScenario.node[24].appl generatedWSMs 1
scalar RSUExampleScenario.node[24].appl receivedWSMs 12
scalar RSUExampleScenario.node[24].appl generatedBSMs 0
scalar RSUExampleScenario.node[24].appl receivedBSMs 0
scalar RSUExampleScenario.node[24].appl generatedWSAs 0
scalar RSUExampleScenario.node[24].appl receivedWSAs 0
scalar RSUExampleScenario.node[24].nic.phy80211p busyTime 8.6459627329193e-06
scalar RSUExampleScenario.node[24].nic.mac1609_4 ReceivedUnicastPackets 0
scalar RSUExampleScenario.node[24].nic.mac1609_4 ReceivedBroadcasts 12
scalar RSUExampleScenario.node[24].nic.mac1609_4 SentPackets 1
scalar RSUExampleScenario.node[24].nic.mac1609_4 SentAcknowledgements 0
scalar RSUExampleScenario.node[24].nic.mac1609_4 RetriesExceeded 0
scalar RSUExampleScenario.node[24].nic.mac1609_4 SNIRLostPackets 0
scalar RSUExampleScenario.node[24].nic.mac1609_4 RXTXLostPackets 0
scalar RSUExampleScenario.node[24].nic.mac1609_4 TotalLostPackets 0
scalar RSUExampleScenario.node[24].nic.mac1609_4 DroppedPacketsInMac 0
scalar RSUExampleScenario.node[24].nic.mac1609_4 TooLittleTime 0
scalar RSUExampleScenario.node[24].nic.mac1609_4 TimesIntoBackoff 1
scalar RSUExampleScenario.node[24].nic.mac1609_4 SlotsBackoff 1
scalar RSUExampleScenario.node[24].nic.mac1609_4 NumInternalContention 0
scalar RSUExampleScenario.node[24].nic.mac1609_4 totalBusyTime 0.003017
scalar RSUExampleScenario.node[24].nic.mac1609_4 retriesExceeded:count 0
attr source org_car2x_veins_modules_mac_sigRetriesExceeded
scalar RSUExampleScenario.node[24].nic.mac1609_4 sentAcks:count 0
attr source org_car2x_veins_modules_mac_sigSentAck
scalar RSUExampleScenario.node[24].nic.mac1609_4 sentPackets:count 1
attr source org_car2x_veins_modules_mac_sigSentPacket
scalar RSUExampleScenario.node[24].nic.mac1609_4 collisions:count 0
attr source org_car2x_veins_modules_mac_sigCollision
scalar RSUExampleScenario.node[24].nic.mac1609_4 channelBusy:timeavg 9.3695652173913e-06
attr source org_car2x_veins_modules_mac_sigChannelBusy
scalar RSUExampleScenario.node[24].veinsmobility startTime 73
scalar RSUExampleScenario.node[24].veinsmobility totalTime 321
scalar RSUExampleScenario.node[24].veinsmobility stopTime 395
scalar RSUExampleScenario.node[24].veinsmobility minSpeed 4.0735588402093
scalar RSUExampleScenario.node[24].veinsmobility maxSpeed 13.99918950615
scalar RSUExampleScenario.node[24].veinsmobility totalDistance 3259.6080222078
scalar RSUExampleScenario.node[24].veinsmobility totalCO2Emission 627.64926142832
scalar RSUExampleScenario.node[23].appl generatedWSMs 1
scalar RSUExampleScenario.node[23].appl receivedWSMs 12
scalar RSUExampleScenario.node[23].appl generatedBSMs 0
scalar RSUExampleScenario.node[23].appl receivedBSMs 0
scalar RSUExampleScenario.node[23].appl generatedWSAs 0
scalar RSUExampleScenario.node[23].appl receivedWSAs 0
scalar RSUExampleScenario.node[23].nic.phy80211p busyTime 8.212389380531e-06
scalar RSUExampleScenario.node[23].nic.mac1609_4 ReceivedUnicastPackets 0
scalar RSUExampleScenario.node[23].nic.mac1609_4 ReceivedBroadcasts 12
scalar RSUExampleScenario.node[23].nic.mac1609_4 SentPackets 1
scalar RSUExampleScenario.node[23].nic.mac1609_4 SentAcknowledgements 0
scalar RSUExampleScenario.node[23].nic.mac1609_4 RetriesExceeded 0
scalar RSUExampleScenario.node[23].nic.mac1609_4 SNIRLostPackets 0
scalar RSUExampleScenario.node[23].nic.mac1609_4 RXTXLostPackets 0
scalar RSUExampleScenario.node[23].nic.mac1609_4 TotalLostPackets 0
scalar RSUExampleScenario.node[23].nic.mac1609_4 DroppedPacketsInMac 0
scalar RSUExampleScenario.node[23].nic.mac1609_4 TooLittleTime 0
scalar RSUExampleScenario.node[23].nic.mac1609_4 TimesIntoBackoff 1
scalar RSUExampleScenario.node[23].nic.mac1609_4 SlotsBackoff 3
scalar RSUExampleScenario.node[23].nic.mac1609_4 NumInternalContention 0
scalar RSUExampleScenario.node[23].nic.mac1609_4 totalBusyTime 0.003017
scalar RSUExampleScenario.node[23].nic.mac1609_4 retriesExceeded:count 0
attr source org_car2x_veins_modules_mac_sigRetriesExceeded
scalar RSUExampleScenario.node[23].nic.mac1609_4 sentAcks:count 0
attr source org_car2x_veins_modules_mac_sigSentAck
scalar RSUExampleScenario.node[23].nic.mac1609_4 sentPackets:count 1
attr source org_car2x_veins_modules_mac_sigSentPacket
scalar RSUExampleScenario.node[23].nic.mac1609_4 collisions:count 0
attr source org_car2x_veins_modules_mac_sigCollision
scalar RSUExampleScenario.node[23].nic.mac1609_4 channelBusy:timeavg 8.8997050147493e-06
attr source org_car2x_veins_modules_mac_sigChannelBusy
scalar RSUExampleScenario.node[23].veinsmobility startTime 70
scalar RSUExampleScenario.node[23].veinsmobility totalTime 338
scalar RSUExampleScenario.node[23].veinsmobility stopTime 409
scalar RSUExampleScenario.node[23].veinsmobility minSpeed 4.0859593419879
scalar RSUExampleScenario.node[23].veinsmobility maxSpeed 12.488060180567
scalar RSUExampleScenario.node[23].veinsmobility totalDistance 3257.5491760408
scalar RSUExampleScenario.node[23].veinsmobility totalCO2Emission 630.18950670538
scalar RSUExampleScenario.node[30].appl generatedWSMs 1
scalar RSUExampleScenario.node[30].appl receivedWSMs 13
scalar RSUExampleScenario.node[30].appl generatedBSMs 0
scalar RSUExampleScenario.node[30].appl receivedBSMs 0
scalar RSUExampleScenario.node[30].appl generatedWSAs 0
scalar RSUExampleScenario.node[30].appl receivedWSAs 0
scalar RSUExampleScenario.node[30].nic.phy80211p busyTime 9.4545454545455e-06
scalar RSUExampleScenario.node[30].nic.mac1609_4 ReceivedUnicastPackets 0
scalar RSUExampleScenario.node[30].nic.mac1609_4 ReceivedBroadcasts 13
scalar RSUExampleScenario.node[30].nic.mac1609_4 SentPackets 1
scalar RSUExampleScenario.node[30].nic.mac1609_4 SentAcknowledgements 0
scalar RSUExampleScenario.node[30].nic.mac1609_4 RetriesExceeded 0
scalar RSUExampleScenario.node[30].nic.mac1609_4 SNIRLostPackets 0
scalar RSUExampleScenario.node[30].nic.mac1609_4 RXTXLostPackets 0
scalar RSUExampleScenario.node[30].nic.mac1609_4 TotalLostPackets 0
scalar RSUExampleScenario.node[30].nic.mac1609_4 DroppedPacketsInMac 0
scalar RSUExampleScenario.node[30].nic.mac1609_4 TooLittleTime 0
scalar RSUExampleScenario.node[30].nic.mac1609_4 TimesIntoBackoff 1
scalar RSUExampleScenario.node[30].nic.mac1609_4 SlotsBackoff 3
scalar RSUExampleScenario.node[30].nic.mac1609_4 NumInternalContention 0
scalar RSUExampleScenario.node[30].nic.mac1609_4 totalBusyTime 0.003249
scalar RSUExampleScenario.node[30].nic.mac1609_4 retriesExceeded:count 0
attr source org_car2x_veins_modules_mac_sigRetriesExceeded
scalar RSUExampleScenario.node[30].nic.mac1609_4 sentAcks:count 0
attr source org_car2x_veins_modules_mac_sigSentAck
scalar RSUExampleScenario.node[30].nic.mac1609_4 sentPackets:count 1
attr source org_car2x_veins_modules_mac_sigSentPacket
scalar RSUExampleScenario.node[30].nic.mac1609_4 collisions:count 0
attr source org_car2x_veins_modules_mac_sigCollision
scalar RSUExampleScenario.node[30].nic.mac1609_4 channelBusy:timeavg 1.0184952978056e-05
attr source org_car2x_veins_modules_mac_sigChannelBusy
scalar RSUExampleScenario.node[30].veinsmobility startTime 91
scalar RSUExampleScenario.node[30].veinsmobility totalTime 318
scalar RSUExampleScenario.node[30].veinsmobility stopTime 410
scalar RSUExampleScenario.node[30].veinsmobility minSpeed 0
scalar RSUExampleScenario.node[30].veinsmobility maxSpeed 13.998849253061
scalar RSUExampleScenario.node[30].veinsmobility totalDistance 3390.8667995177
scalar RSUExampleScenario.node[30].veinsmobility totalCO2Emission 623.11625171217
scalar RSUExampleScenario.node[31].appl generatedWSMs 1
scalar RSUExampleScenario.node[31].appl receivedWSMs 13
scalar RSUExampleScenario.node[31].appl generatedBSMs 0
scalar RSUExampleScenario.node[31].appl receivedBSMs 0
scalar RSUExampleScenario.node[31].appl generatedWSAs 0
scalar RSUExampleScenario.node[31].appl receivedWSAs 0
scalar RSUExampleScenario.node[31].nic.phy80211p busyTime 9.4842767295597e-06
scalar RSUExampleScenario.node[31].nic.mac1609_4 ReceivedUnicastPackets 0
scalar RSUExampleScenario.node[31].nic.mac1609_4 ReceivedBroadcasts 13
scalar RSUExampleScenario.node[31].nic.mac1609_4 SentPackets 1
scalar RSUExampleScenario.node[31].nic.mac1609_4 SentAcknowledgements 0
scalar RSUExampleScenario.node[31].nic.mac1609_4 RetriesExceeded 0
scalar RSUExampleScenario.node[31].nic.mac1609_4 SNIRLostPackets 0
scalar RSUExampleScenario.node[31].nic.mac1609_4 RXTXLostPackets 0
scalar RSUExampleScenario.node[31].nic.mac1609_4 TotalLostPackets 0
scalar RSUExampleScenario.node[31].nic.mac1609_4 DroppedPacketsInMac 0
scalar RSUExampleScenario.node[31].nic.mac1609_4 TooLittleTime 0
scalar RSUExampleScenario.node[31].nic.mac1609_4 TimesIntoBackoff 1
scalar RSUExampleScenario.node[31].nic.mac1609_4 SlotsBackoff 3
scalar RSUExampleScenario.node[31].nic.mac1609_4 NumInternalContention 0
scalar RSUExampleScenario.node[31].nic.mac1609_4 totalBusyTime 0.003249
scalar RSUExampleScenario.node[31].nic.mac1609_4 retriesExceeded:count 0
attr source org_car2x_veins_modules_mac_sigRetriesExceeded
scalar RSUExampleScenario.node[31].nic.mac1609_4 sentAcks:count 0
attr source org_car2x_veins_modules_mac_sigSentAck
scalar RSUExampleScenario.node[31].nic.mac1609_4 sentPackets:count 1
attr source org_car2x_veins_modules_mac_sigSentPacket
scalar RSUExampleScenario.node[31].nic.mac1609_4 collisions:count 0
attr source org_car2x_veins_modules_mac_sigCollision
scalar RSUExampleScenario.node[31].nic.mac1609_4 channelBusy:timeavg 1.0216981132075e-05
attr source org_car2x_veins_modules_mac_sigChannelBusy
scalar RSUExampleScenario.node[31].veinsmobility startTime 94
scalar RSUExampleScenario.node[31].veinsmobility totalTime 317
scalar RSUExampleScenario.node[31].veinsmobility stopTime 412
scalar RSUExampleScenario.node[31].veinsmobility minSpeed 0
scalar RSUExampleScenario.node[31].veinsmobility maxSpeed 13.99787774622
scalar RSUExampleScenario.node[31].veinsmobility totalDistance 3392.4657482457
scalar RSUExampleScenario.node[31].veinsmobility totalCO2Emission 634.63374501873
scalar RSUExampleScenario.node[33].appl generatedWSMs 1
scalar RSUExampleScenario.node[33].appl receivedWSMs 13
scalar RSUExampleScenario.node[33].appl generatedBSMs 0
scalar RSUExampleScenario.node[33].appl receivedBSMs 0
scalar RSUExampleScenario.node[33].appl generatedWSAs 0
scalar RSUExampleScenario.node[33].appl receivedWSAs 0
scalar RSUExampleScenario.node[33].nic.phy80211p busyTime 1.0343949044586e-05
scalar RSUExampleScenario.node[33].nic.mac1609_4 ReceivedUnicastPackets 0
scalar RSUExampleScenario.node[33].nic.mac1609_4 ReceivedBroadcasts 13
scalar RSUExampleScenario.node[33].nic.mac1609_4 SentPackets 1
scalar RSUExampleScenario.node[33].nic.mac1609_4 SentAcknowledgements 0
scalar RSUExampleScenario.node[33].nic.mac1609_4 RetriesExceeded 0
scalar RSUExampleScenario.node[33].nic.mac1609_4 SNIRLostPackets 1
scalar RSUExampleScenario.node[33].nic.mac1609_4 RXTXLostPackets 0
scalar RSUExampleScenario.node[33].nic.mac1609_4 TotalLostPackets 1
scalar RSUExampleScenario.node[33].nic.mac1609_4 DroppedPacketsInMac 0
scalar RSUExampleScenario.node[33].nic.mac1609_4 TooLittleTime 0
scalar RSUExampleScenario.node[33].nic.mac1609_4 TimesIntoBackoff 2
scalar RSUExampleScenario.node[33].nic.mac1609_4 SlotsBackoff 3
scalar RSUExampleScenario.node[33].nic.mac1609_4 NumInternalContention 0
scalar RSUExampleScenario.node[33].nic.mac1609_4 totalBusyTime 0.003481
scalar RSUExampleScenario.node[33].nic.mac1609_4 retriesExceeded:count 0
attr source org_car2x_veins_modules_mac_sigRetriesExceeded
scalar RSUExampleScenario.node[33].nic.mac1609_4 sentAcks:count 0
attr source org_car2x_veins_modules_mac_sigSentAck
scalar RSUExampleScenario.node[33].nic.mac1609_4 sentPackets:count 1
attr source org_car2x_veins_modules_mac_sigSentPacket
scalar RSUExampleScenario.node[33].nic.mac1609_4 collisions:count 0
attr source org_car2x_veins_modules_mac_sigCollision
scalar RSUExampleScenario.node[33].nic.mac1609_4 channelBusy:timeavg 1.1085987261146e-05
attr source org_car2x_veins_modules_mac_sigChannelBusy
scalar RSUExampleScenario.node[33].veinsmobility startTime 100
scalar RSUExampleScenario.node[33].veinsmobility totalTime 313
scalar RSUExampleScenario.node[33].veinsmobility stopTime 414
scalar RSUExampleScenario.node[33].veinsmobility minSpeed 0
scalar RSUExampleScenario.node[33].veinsmobility maxSpeed 13.999884398489
scalar RSUExampleScenario.node[33].veinsmobility totalDistance 3394.4560088176
scalar RSUExampleScenario.node[33].veinsmobility totalCO2Emission 615.76042742479
scalar RSUExampleScenario.node[32].appl generatedWSMs 1
scalar RSUExampleScenario.node[32].appl receivedWSMs 13
scalar RSUExampleScenario.node[32].appl generatedBSMs 0
scalar RSUExampleScenario.node[32].appl receivedBSMs 0
scalar RSUExampleScenario.node[32].appl generatedWSAs 0
scalar RSUExampleScenario.node[32].appl receivedWSAs 0
scalar RSUExampleScenario.node[32].nic.phy80211p busyTime 1.0181818181818e-05
scalar RSUExampleScenario.node[32].nic.mac1609_4 ReceivedUnicastPackets 0
scalar RSUExampleScenario.node[32].nic.mac1609_4 ReceivedBroadcasts 13
scalar RSUExampleScenario.node[32].nic.mac1609_4 SentPackets 1
scalar RSUExampleScenario.node[32].nic.mac1609_4 SentAcknowledgements 0
scalar RSUExampleScenario.node[32].nic.mac1609_4 RetriesExceeded 0
scalar RSUExampleScenario.node[32].nic.mac1609_4 SNIRLostPackets 1
scalar RSUExampleScenario.node[32].nic.mac1609_4 RXTXLostPackets 0
scalar RSUExampleScenario.node[32].nic.mac1609_4 TotalLostPackets 1
scalar RSUExampleScenario.node[32].nic.mac1609_4 DroppedPacketsInMac 0
scalar RSUExampleScenario.node[32].nic.mac1609_4 TooLittleTime 0
scalar RSUExampleScenario.node[32].nic.mac1609_4 TimesIntoBackoff 1
scalar RSUExampleScenario.node[32].nic.mac1609_4 SlotsBackoff 3
scalar RSUExampleScenario.node[32].nic.mac1609_4 NumInternalContention 0
scalar RSUExampleScenario.node[32].nic.mac1609_4 totalBusyTime 0.003481
scalar RSUExampleScenario.node[32].nic.mac1609_4 retriesExceeded:count 0
attr source org_car2x_veins_modules_mac_sigRetriesExceeded
scalar RSUExampleScenario.node[32].nic.mac1609_4 sentAcks:count 0
attr source org_car2x_veins_modules_mac_sigSentAck
scalar RSUExampleScenario.node[32].nic.mac1609_4 sentPackets:count 1
attr source org_car2x_veins_modules_mac_sigSentPacket
scalar RSUExampleScenario.node[32].nic.mac1609_4 collisions:count 0
attr source org_car2x_veins_modules_mac_sigCollision
scalar RSUExampleScenario.node[32].nic.mac1609_4 channelBusy:timeavg 1.0912225705329e-05
attr source org_car2x_veins_modules_mac_sigChannelBusy
scalar RSUExampleScenario.node[32].veinsmobility startTime 97
scalar RSUExampleScenario.node[32].veinsmobility totalTime 318
scalar RSUExampleScenario.node[32].veinsmobility stopTime 416
scalar RSUExampleScenario.node[32].veinsmobility minSpeed 0
scalar RSUExampleScenario.node[32].veinsmobility maxSpeed 13.999720712805
scalar RSUExampleScenario.node[32].veinsmobility totalDistance 3400.0069535008
scalar RSUExampleScenario.node[32].veinsmobility totalCO2Emission 629.32929936279
scalar RSUExampleScenario.node[34].appl generatedWSMs 1
scalar RSUExampleScenario.node[34].appl receivedWSMs 14
scalar RSUExampleScenario.node[34].appl generatedBSMs 0
scalar RSUExampleScenario.node[34].appl receivedBSMs 0
scalar RSUExampleScenario.node[34].appl generatedWSAs 0
scalar RSUExampleScenario.node[34].appl receivedWSAs 0
scalar RSUExampleScenario.node[34].nic.phy80211p busyTime 1.0311111111111e-05
scalar RSUExampleScenario.node[34].nic.mac1609_4 ReceivedUnicastPackets 0
scalar RSUExampleScenario.node[34].nic.mac1609_4 ReceivedBroadcasts 14
scalar RSUExampleScenario.node[34].nic.mac1609_4 SentPackets 1
scalar RSUExampleScenario.node[34].nic.mac1609_4 SentAcknowledgements 0
scalar RSUExampleScenario.node[34].nic.mac1609_4 RetriesExceeded 0
scalar RSUExampleScenario.node[34].nic.mac1609_4 SNIRLostPackets 0
scalar RSUExampleScenario.node[34].nic.mac1609_4 RXTXLostPackets 0
scalar RSUExampleScenario.node[34].nic.mac1609_4 TotalLostPackets 0
scalar RSUExampleScenario.node[34].nic.mac1609_4 DroppedPacketsInMac 0
scalar RSUExampleScenario.node[34].nic.mac1609_4 TooLittleTime 0
scalar RSUExampleScenario.node[34].nic.mac1609_4 TimesIntoBackoff 1
scalar RSUExampleScenario.node[34].nic.mac1609_4 SlotsBackoff 1
scalar RSUExampleScenario.node[34].nic.mac1609_4 NumInternalContention 0
scalar RSUExampleScenario.node[34].nic.mac1609_4 totalBusyTime 0.003481
scalar RSUExampleScenario.node[34].nic.mac1609_4 retriesExceeded:count 0
attr source org_car2x_veins_modules_mac_sigRetriesExceeded
scalar RSUExampleScenario.node[34].nic.mac1609_4 sentAcks:count 0
attr source org_car2x_veins_modules_mac_sigSentAck
scalar RSUExampleScenario.node[34].nic.mac1609_4 sentPackets:count 1
attr source org_car2x_veins_modules_mac_sigSentPacket
scalar RSUExampleScenario.node[34].nic.mac1609_4 collisions:count 0
attr source org_car2x_veins_modules_mac_sigCollision
scalar RSUExampleScenario.node[34].nic.mac1609_4 channelBusy:timeavg 1.1050793650794e-05
attr source org_car2x_veins_modules_mac_sigChannelBusy
scalar RSUExampleScenario.node[34].veinsmobility startTime 103
scalar RSUExampleScenario.node[34].veinsmobility totalTime 314
scalar RSUExampleScenario.node[34].veinsmobility stopTime 418
scalar RSUExampleScenario.node[34].veinsmobility minSpeed 0
scalar RSUExampleScenario.node[34].veinsmobility maxSpeed 13.999993033642
scalar RSUExampleScenario.node[34].veinsmobility totalDistance 3399.8858532142
scalar RSUExampleScenario.node[34].veinsmobility totalCO2Emission 624.46363215426
scalar RSUExampleScenario.node[35].appl generatedWSMs 1
scalar RSUExampleScenario.node[35].appl receivedWSMs 14
scalar RSUExampleScenario.node[35].appl generatedBSMs 0
scalar RSUExampleScenario.node[35].appl receivedBSMs 0
scalar RSUExampleScenario.node[35].appl generatedWSAs 0
scalar RSUExampleScenario.node[35].appl receivedWSAs 0
scalar RSUExampleScenario.node[35].nic.phy80211p busyTime 1.111821086262e-05
scalar RSUExampleScenario.node[35].nic.mac1609_4 ReceivedUnicastPackets 0
scalar RSUExampleScenario.node[35].nic.mac1609_4 ReceivedBroadcasts 14
scalar RSUExampleScenario.node[35].nic.mac1609_4 SentPackets 1
scalar RSUExampleScenario.node[35].nic.mac1609_4 SentAcknowledgements 0
scalar RSUExampleScenario.node[35].nic.mac1609_4 RetriesExceeded 0
scalar RSUExampleScenario.node[35].nic.mac1609_4 SNIRLostPackets 1
scalar RSUExampleScenario.node[35].nic.mac1609_4 RXTXLostPackets 0
scalar RSUExampleScenario.node[35].nic.mac1609_4 TotalLostPackets 1
scalar RSUExampleScenario.node[35].nic.mac1609_4 DroppedPacketsInMac 0
scalar RSUExampleScenario.node[35].nic.mac1609_4 TooLittleTime 0
scalar RSUExampleScenario.node[35].nic.mac1609_4 TimesIntoBackoff 1
scalar RSUExampleScenario.node[35].nic.mac1609_4 SlotsBackoff 0
scalar RSUExampleScenario.node[35].nic.mac1609_4 NumInternalContention 0
scalar RSUExampleScenario.node[35].nic.mac1609_4 totalBusyTime 0.003713
scalar RSUExampleScenario.node[35].nic.mac1609_4 retriesExceeded:count 0
attr source org_car2x_veins_modules_mac_sigRetriesExceeded
scalar RSUExampleScenario.node[35].nic.mac1609_4 sentAcks:count 0
attr source org_car2x_veins_modules_mac_sigSentAck
scalar RSUExampleScenario.node[35].nic.mac1609_4 sentPackets:count 1
attr source org_car2x_veins_modules_mac_sigSentPacket
scalar RSUExampleScenario.node[35].nic.mac1609_4 collisions:count 0
attr source org_car2x_veins_modules_mac_sigCollision
scalar RSUExampleScenario.node[35].nic.mac1609_4 channelBusy:timeavg 1.1862619808307e-05
attr source org_car2x_veins_modules_mac_sigChannelBusy
scalar RSUExampleScenario.node[35].veinsmobility startTime 106
scalar RSUExampleScenario.node[35].veinsmobility totalTime 312
scalar RSUExampleScenario.node[35].veinsmobility stopTime 419
scalar RSUExampleScenario.node[35].veinsmobility minSpeed 0
scalar RSUExampleScenario.node[35].veinsmobility maxSpeed 13.997942404777
scalar RSUExampleScenario.node[35].veinsmobility totalDistance 3394.2207148346
scalar RSUExampleScenario.node[35].veinsmobility totalCO2Emission 617.49221169617
scalar RSUExampleScenario.node[36].appl generatedWSMs 1
scalar RSUExampleScenario.node[36].appl receivedWSMs 15
scalar RSUExampleScenario.node[36].appl generatedBSMs 0
scalar RSUExampleScenario.node[36].appl receivedBSMs 0
scalar RSUExampleScenario.node[36].appl generatedWSAs 0
scalar RSUExampleScenario.node[36].appl receivedWSAs 0
scalar RSUExampleScenario.node[36].nic.phy80211p busyTime 1.1153846153846e-05
scalar RSUExampleScenario.node[36].nic.mac1609_4 ReceivedUnicastPackets 0
scalar RSUExampleScenario.node[36].nic.mac1609_4 ReceivedBroadcasts 15
scalar RSUExampleScenario.node[36].nic.mac1609_4 SentPackets 1
scalar RSUExampleScenario.node[36].nic.mac1609_4 SentAcknowledgements 0
scalar RSUExampleScenario.node[36].nic.mac1609_4 RetriesExceeded 0
scalar RSUExampleScenario.node[36].nic.mac1609_4 SNIRLostPackets 0
scalar RSUExampleScenario.node[36].nic.mac1609_4 RXTXLostPackets 0
scalar RSUExampleScenario.node[36].nic.mac1609_4 TotalLostPackets 0
scalar RSUExampleScenario.node[36].nic.mac1609_4 DroppedPacketsInMac 0
scalar RSUExampleScenario.node[36].nic.mac1609_4 TooLittleTime 0
scalar RSUExampleScenario.node[36].nic.mac1609_4 TimesIntoBackoff 1
scalar RSUExampleScenario.node[36].nic.mac1609_4 SlotsBackoff 3
scalar RSUExampleScenario.node[36].nic.mac1609_4 NumInternalContention 0
scalar RSUExampleScenario.node[36].nic.mac1609_4 totalBusyTime 0.003713
scalar RSUExampleScenario.node[36].nic.mac1609_4 retriesExceeded:count 0
attr source org_car2x_veins_modules_mac_sigRetriesExceeded
scalar RSUExampleScenario.node[36].nic.mac1609_4 sentAcks:count 0
attr source org_car2x_veins_modules_mac_sigSentAck
scalar RSUExampleScenario.node[36].nic.mac1609_4 sentPackets:count 1
attr source org_car2x_veins_modules_mac_sigSentPacket
scalar RSUExampleScenario.node[36].nic.mac1609_4 collisions:count 0
attr source org_car2x_veins_modules_mac_sigCollision
scalar RSUExampleScenario.node[36].nic.mac1609_4 channelBusy:timeavg 1.1900641025641e-05
attr source org_car2x_veins_modules_mac_sigChannelBusy
scalar RSUExampleScenario.node[36].veinsmobility startTime 109
scalar RSUExampleScenario.node[36].veinsmobility totalTime 311
scalar RSUExampleScenario.node[36].veinsmobility stopTime 421
scalar RSUExampleScenario.node[36].veinsmobility minSpeed 0
scalar RSUExampleScenario.node[36].veinsmobility maxSpeed 13.998663427769
scalar RSUExampleScenario.node[36].veinsmobility totalDistance 3395.6100464054
scalar RSUExampleScenario.node[36].veinsmobility totalCO2Emission 616.85940398436
scalar RSUExampleScenario.node[37].appl generatedWSMs 1
scalar RSUExampleScenario.node[37].appl receivedWSMs 18
scalar RSUExampleScenario.node[37].appl generatedBSMs 0
scalar RSUExampleScenario.node[37].appl receivedBSMs 0
scalar RSUExampleScenario.node[37].appl generatedWSAs 0
scalar RSUExampleScenario.node[37].appl receivedWSAs 0
scalar RSUExampleScenario.node[37].nic.phy80211p busyTime 1.3427652733119e-05
scalar RSUExampleScenario.node[37].nic.mac1609_4 ReceivedUnicastPackets 0
scalar RSUExampleScenario.node[37].nic.mac1609_4 ReceivedBroadcasts 18
scalar RSUExampleScenario.node[37].nic.mac1609_4 SentPackets 1
scalar RSUExampleScenario.node[37].nic.mac1609_4 SentAcknowledgements 0
scalar RSUExampleScenario.node[37].nic.mac1609_4 RetriesExceeded 0
scalar RSUExampleScenario.node[37].nic.mac1609_4 SNIRLostPackets 0
scalar RSUExampleScenario.node[37].nic.mac1609_4 RXTXLostPackets 0
scalar RSUExampleScenario.node[37].nic.mac1609_4 TotalLostPackets 0
scalar RSUExampleScenario.node[37].nic.mac1609_4 DroppedPacketsInMac 0
scalar RSUExampleScenario.node[37].nic.mac1609_4 TooLittleTime 0
scalar RSUExampleScenario.node[37].nic.mac1609_4 TimesIntoBackoff 1
scalar RSUExampleScenario.node[37].nic.mac1609_4 SlotsBackoff 0
scalar RSUExampleScenario.node[37].nic.mac1609_4 NumInternalContention 0
scalar RSUExampleScenario.node[37].nic.mac1609_4 totalBusyTime 0.004409
scalar RSUExampleScenario.node[37].nic.mac1609_4 retriesExceeded:count 0
attr source org_car2x_veins_modules_mac_sigRetriesExceeded
scalar RSUExampleScenario.node[37].nic.mac1609_4 sentAcks:count 0
attr source org_car2x_veins_modules_mac_sigSentAck
scalar RSUExampleScenario.node[37].nic.mac1609_4 sentPackets:count 1
attr source org_car2x_veins_modules_mac_sigSentPacket
scalar RSUExampleScenario.node[37].nic.mac1609_4 collisions:count 0
attr source org_car2x_veins_modules_mac_sigCollision
scalar RSUExampleScenario.node[37].nic.mac1609_4 channelBusy:timeavg 1.4176848874598e-05
attr source org_car2x_veins_modules_mac_sigChannelBusy
scalar RSUExampleScenario.node[37].veinsmobility startTime 112
scalar RSUExampleScenario.node[37].veinsmobility totalTime 310
scalar RSUExampleScenario.node[37].veinsmobility stopTime 423
scalar RSUExampleScenario.node[37].veinsmobility minSpeed 0
scalar RSUExampleScenario.node[37].veinsmobility maxSpeed 13.999776709119
scalar RSUExampleScenario.node[37].veinsmobility totalDistance 3400.9721953528
scalar RSUExampleScenario.node[37].veinsmobility totalCO2Emission 612.69501171173
scalar RSUExampleScenario.node[38].appl generatedWSMs 1
scalar RSUExampleScenario.node[38].appl receivedWSMs 19
scalar RSUExampleScenario.node[38].appl generatedBSMs 0
scalar RSUExampleScenario.node[38].appl receivedBSMs 0
scalar RSUExampleScenario.node[38].appl generatedWSAs 0
scalar RSUExampleScenario.node[38].appl receivedWSAs 0
scalar RSUExampleScenario.node[38].nic.phy80211p busyTime 1.4265372168285e-05
scalar RSUExampleScenario.node[38].nic.mac1609_4 ReceivedUnicastPackets 0
scalar RSUExampleScenario.node[38].nic.mac1609_4 ReceivedBroadcasts 19
scalar RSUExampleScenario.node[38].nic.mac1609_4 SentPackets 1
scalar RSUExampleScenario.node[38].nic.mac1609_4 SentAcknowledgements 0
scalar RSUExampleScenario.node[38].nic.mac1609_4 RetriesExceeded 0
scalar RSUExampleScenario.node[38].nic.mac1609_4 SNIRLostPackets 0
scalar RSUExampleScenario.node[38].nic.mac1609_4 RXTXLostPackets 0
scalar RSUExampleScenario.node[38].nic.mac1609_4 TotalLostPackets 0
scalar RSUExampleScenario.node[38].nic.mac1609_4 DroppedPacketsInMac 0
scalar RSUExampleScenario.node[38].nic.mac1609_4 TooLittleTime 0
scalar RSUExampleScenario.node[38].nic.mac1609_4 TimesIntoBackoff 1
scalar RSUExampleScenario.node[38].nic.mac1609_4 SlotsBackoff 1
scalar RSUExampleScenario.node[38].nic.mac1609_4 NumInternalContention 0
scalar RSUExampleScenario.node[38].nic.mac1609_4 totalBusyTime 0.004641
scalar RSUExampleScenario.node[38].nic.mac1609_4 retriesExceeded:count 0
attr source org_car2x_veins_modules_mac_sigRetriesExceeded
scalar RSUExampleScenario.node[38].nic.mac1609_4 sentAcks:count 0
attr source org_car2x_veins_modules_mac_sigSentAck
scalar RSUExampleScenario.node[38].nic.mac1609_4 sentPackets:count 1
attr source org_car2x_veins_modules_mac_sigSentPacket
scalar RSUExampleScenario.node[38].nic.mac1609_4 collisions:count 0
attr source org_car2x_veins_modules_mac_sigCollision
scalar RSUExampleScenario.node[38].nic.mac1609_4 channelBusy:timeavg 1.5019417475728e-05
attr source org_car2x_veins_modules_mac_sigChannelBusy
scalar RSUExampleScenario.node[38].veinsmobility startTime 115
scalar RSUExampleScenario.node[38].veinsmobility totalTime 308
scalar RSUExampleScenario.node[38].veinsmobility stopTime 424
scalar RSUExampleScenario.node[38].veinsmobility minSpeed 0
scalar RSUExampleScenario.node[38].veinsmobility maxSpeed 13.999480782887
scalar RSUExampleScenario.node[38].veinsmobility totalDistance 3392.6746528932
scalar RSUExampleScenario.node[38].veinsmobility totalCO2Emission 608.32648312475
scalar RSUExampleScenario.node[39].appl generatedWSMs 1
scalar RSUExampleScenario.node[39].appl receivedWSMs 22
scalar RSUExampleScenario.node[39].appl generatedBSMs 0
scalar RSUExampleScenario.node[39].appl receivedBSMs 0
scalar RSUExampleScenario.node[39].appl generatedWSAs 0
scalar RSUExampleScenario.node[39].appl receivedWSAs 0
scalar RSUExampleScenario.node[39].nic.phy80211p busyTime 1.6571428571429e-05
scalar RSUExampleScenario.node[39].nic.mac1609_4 ReceivedUnicastPackets 0
scalar RSUExampleScenario.node[39].nic.mac1609_4 ReceivedBroadcasts 22
scalar RSUExampleScenario.node[39].nic.mac1609_4 SentPackets 1
scalar RSUExampleScenario.node[39].nic.mac1609_4 SentAcknowledgements 0
scalar RSUExampleScenario.node[39].nic.mac1609_4 RetriesExceeded 0
scalar RSUExampleScenario.node[39].nic.mac1609_4 SNIRLostPackets 0
scalar RSUExampleScenario.node[39].nic.mac1609_4 RXTXLostPackets 0
scalar RSUExampleScenario.node[39].nic.mac1609_4 TotalLostPackets 0
scalar RSUExampleScenario.node[39].nic.mac1609_4 DroppedPacketsInMac 0
scalar RSUExampleScenario.node[39].nic.mac1609_4 TooLittleTime 0
scalar RSUExampleScenario.node[39].nic.mac1609_4 TimesIntoBackoff 1
scalar RSUExampleScenario.node[39].nic.mac1609_4 SlotsBackoff 1
scalar RSUExampleScenario.node[39].nic.mac1609_4 NumInternalContention 0
scalar RSUExampleScenario.node[39].nic.mac1609_4 totalBusyTime 0.005337
scalar RSUExampleScenario.node[39].nic.mac1609_4 retriesExceeded:count 0
attr source org_car2x_veins_modules_mac_sigRetriesExceeded
scalar RSUExampleScenario.node[39].nic.mac1609_4 sentAcks:count 0
attr source org_car2x_veins_modules_mac_sigSentAck
scalar RSUExampleScenario.node[39].nic.mac1609_4 sentPackets:count 1
attr source org_car2x_veins_modules_mac_sigSentPacket
scalar RSUExampleScenario.node[39].nic.mac1609_4 collisions:count 0
attr source org_car2x_veins_modules_mac_sigCollision
scalar RSUExampleScenario.node[39].nic.mac1609_4 channelBusy:timeavg 1.7327922077922e-05
attr source org_car2x_veins_modules_mac_sigChannelBusy
scalar RSUExampleScenario.node[39].veinsmobility startTime 118
scalar RSUExampleScenario.node[39].veinsmobility totalTime 307
scalar RSUExampleScenario.node[39].veinsmobility stopTime 426
scalar RSUExampleScenario.node[39].veinsmobility minSpeed 0
scalar RSUExampleScenario.node[39].veinsmobility maxSpeed 13.999701923954
scalar RSUExampleScenario.node[39].veinsmobility totalDistance 3397.1238271863
scalar RSUExampleScenario.node[39].veinsmobility totalCO2Emission 602.35485818614
scalar RSUExampleScenario.node[25].appl generatedWSMs 1
scalar RSUExampleScenario.node[25].appl receivedWSMs 11
scalar RSUExampleScenario.node[25].appl generatedBSMs 0
scalar RSUExampleScenario.node[25].appl receivedBSMs 0
scalar RSUExampleScenario.node[25].appl generatedWSAs 0
scalar RSUExampleScenario.node[25].appl receivedWSAs 0
scalar RSUExampleScenario.node[25].nic.phy80211p busyTime 7.9090909090909e-06
scalar RSUExampleScenario.node[25].nic.mac1609_4 ReceivedUnicastPackets 0
scalar RSUExampleScenario.node[25].nic.mac1609_4 ReceivedBroadcasts 11
scalar RSUExampleScenario.node[25].nic.mac1609_4 SentPackets 1
scalar RSUExampleScenario.node[25].nic.mac1609_4 SentAcknowledgements 0
scalar RSUExampleScenario.node[25].nic.mac1609_4 RetriesExceeded 0
scalar RSUExampleScenario.node[25].nic.mac1609_4 SNIRLostPackets 1
scalar RSUExampleScenario.node[25].nic.mac1609_4 RXTXLostPackets 0
scalar RSUExampleScenario.node[25].nic.mac1609_4 TotalLostPackets 1
scalar RSUExampleScenario.node[25].nic.mac1609_4 DroppedPacketsInMac 0
scalar RSUExampleScenario.node[25].nic.mac1609_4 TooLittleTime 0
scalar RSUExampleScenario.node[25].nic.mac1609_4 TimesIntoBackoff 1
scalar RSUExampleScenario.node[25].nic.mac1609_4 SlotsBackoff 2
scalar RSUExampleScenario.node[25].nic.mac1609_4 NumInternalContention 0
scalar RSUExampleScenario.node[25].nic.mac1609_4 totalBusyTime 0.003017
scalar RSUExampleScenario.node[25].nic.mac1609_4 retriesExceeded:count 0
attr source org_car2x_veins_modules_mac_sigRetriesExceeded
scalar RSUExampleScenario.node[25].nic.mac1609_4 sentAcks:count 0
attr source org_car2x_veins_modules_mac_sigSentAck
scalar RSUExampleScenario.node[25].nic.mac1609_4 sentPackets:count 1
attr source org_car2x_veins_modules_mac_sigSentPacket
scalar RSUExampleScenario.node[25].nic.mac1609_4 collisions:count 0
attr source org_car2x_veins_modules_mac_sigCollision
scalar RSUExampleScenario.node[25].nic.mac1609_4 channelBusy:timeavg 8.5710227272727e-06
attr source org_car2x_veins_modules_mac_sigChannelBusy
scalar RSUExampleScenario.node[25].veinsmobility startTime 76
scalar RSUExampleScenario.node[25].veinsmobility totalTime 351
scalar RSUExampleScenario.node[25].veinsmobility stopTime 428
scalar RSUExampleScenario.node[25].veinsmobility minSpeed 0
scalar RSUExampleScenario.node[25].veinsmobility maxSpeed 13.99911087913
scalar RSUExampleScenario.node[25].veinsmobility totalDistance 3254.08867166
scalar RSUExampleScenario.node[25].veinsmobility totalCO2Emission 650.96684128777
scalar RSUExampleScenario.node[26].appl generatedWSMs 1
scalar RSUExampleScenario.node[26].appl receivedWSMs 12
scalar RSUExampleScenario.node[26].appl generatedBSMs 0
scalar RSUExampleScenario.node[26].appl receivedBSMs 0
scalar RSUExampleScenario.node[26].appl generatedWSAs 0
scalar RSUExampleScenario.node[26].appl receivedWSAs 0
scalar RSUExampleScenario.node[26].nic.phy80211p busyTime 7.9542857142857e-06
scalar RSUExampleScenario.node[26].nic.mac1609_4 ReceivedUnicastPackets 0
scalar RSUExampleScenario.node[26].nic.mac1609_4 ReceivedBroadcasts 12
scalar RSUExampleScenario.node[26].nic.mac1609_4 SentPackets 1
scalar RSUExampleScenario.node[26].nic.mac1609_4 SentAcknowledgements 0
scalar RSUExampleScenario.node[26].nic.mac1609_4 RetriesExceeded 0
scalar RSUExampleScenario.node[26].nic.mac1609_4 SNIRLostPackets 0
scalar RSUExampleScenario.node[26].nic.mac1609_4 RXTXLostPackets 0
scalar RSUExampleScenario.node[26].nic.mac1609_4 TotalLostPackets 0
scalar RSUExampleScenario.node[26].nic.mac1609_4 DroppedPacketsInMac 0
scalar RSUExampleScenario.node[26].nic.mac1609_4 TooLittleTime 0
scalar RSUExampleScenario.node[26].nic.mac1609_4 TimesIntoBackoff 1
scalar RSUExampleScenario.node[26].nic.mac1609_4 SlotsBackoff 3
scalar RSUExampleScenario.node[26].nic.mac1609_4 NumInternalContention 0
scalar RSUExampleScenario.node[26].nic.mac1609_4 totalBusyTime 0.003017
scalar RSUExampleScenario.node[26].nic.mac1609_4 retriesExceeded:count 0
attr source org_car2x_veins_modules_mac_sigRetriesExceeded
scalar RSUExampleScenario.node[26].nic.mac1609_4 sentAcks:count 0
attr source org_car2x_veins_modules_mac_sigSentAck
scalar RSUExampleScenario.node[26].nic.mac1609_4 sentPackets:count 1
attr source org_car2x_veins_modules_mac_sigSentPacket
scalar RSUExampleScenario.node[26].nic.mac1609_4 collisions:count 0
attr source org_car2x_veins_modules_mac_sigCollision
scalar RSUExampleScenario.node[26].nic.mac1609_4 channelBusy:timeavg 8.62e-06
attr source org_car2x_veins_modules_mac_sigChannelBusy
scalar RSUExampleScenario.node[26].veinsmobility startTime 79
scalar RSUExampleScenario.node[26].veinsmobility totalTime 349
scalar RSUExampleScenario.node[26].veinsmobility stopTime 429
scalar RSUExampleScenario.node[26].veinsmobility minSpeed 0
scalar RSUExampleScenario.node[26].veinsmobility maxSpeed 13.994274740394
scalar RSUExampleScenario.node[26].veinsmobility totalDistance 3251.1041281338
scalar RSUExampleScenario.node[26].veinsmobility totalCO2Emission 643.89906938708
scalar RSUExampleScenario.node[27].appl generatedWSMs 1
scalar RSUExampleScenario.node[27].appl receivedWSMs 14
scalar RSUExampleScenario.node[27].appl generatedBSMs 0
scalar RSUExampleScenario.node[27].appl receivedBSMs 0
scalar RSUExampleScenario.node[27].appl generatedWSAs 0
scalar RSUExampleScenario.node[27].appl receivedWSAs 0
scalar RSUExampleScenario.node[27].nic.phy80211p busyTime 1.1300859598854e-05
scalar RSUExampleScenario.node[27].nic.mac1609_4 ReceivedUnicastPackets 0
scalar RSUExampleScenario.node[27].nic.mac1609_4 ReceivedBroadcasts 14
scalar RSUExampleScenario.node[27].nic.mac1609_4 SentPackets 1
scalar RSUExampleScenario.node[27].nic.mac1609_4 SentAcknowledgements 0
scalar RSUExampleScenario.node[27].nic.mac1609_4 RetriesExceeded 0
scalar RSUExampleScenario.node[27].nic.mac1609_4 SNIRLostPackets 3
scalar RSUExampleScenario.node[27].nic.mac1609_4 RXTXLostPackets 0
scalar RSUExampleScenario.node[27].nic.mac1609_4 TotalLostPackets 3
scalar RSUExampleScenario.node[27].nic.mac1609_4 DroppedPacketsInMac 0
scalar RSUExampleScenario.node[27].nic.mac1609_4 TooLittleTime 0
scalar RSUExampleScenario.node[27].nic.mac1609_4 TimesIntoBackoff 1
scalar RSUExampleScenario.node[27].nic.mac1609_4 SlotsBackoff 2
scalar RSUExampleScenario.node[27].nic.mac1609_4 NumInternalContention 0
scalar RSUExampleScenario.node[27].nic.mac1609_4 totalBusyTime 0.004177
scalar RSUExampleScenario.node[27].nic.mac1609_4 retriesExceeded:count 0
attr source org_car2x_veins_modules_mac_sigRetriesExceeded
scalar RSUExampleScenario.node[27].nic.mac1609_4 sentAcks:count 0
attr source org_car2x_veins_modules_mac_sigSentAck
scalar RSUExampleScenario.node[27].nic.mac1609_4 sentPackets:count 1
attr source org_car2x_veins_modules_mac_sigSentPacket
scalar RSUExampleScenario.node[27].nic.mac1609_4 collisions:count 0
attr source org_car2x_veins_modules_mac_sigCollision
scalar RSUExampleScenario.node[27].nic.mac1609_4 channelBusy:timeavg 1.1968481375358e-05
attr source org_car2x_veins_modules_mac_sigChannelBusy
scalar RSUExampleScenario.node[27].veinsmobility startTime 82
scalar RSUExampleScenario.node[27].veinsmobility totalTime 348
scalar RSUExampleScenario.node[27].veinsmobility stopTime 431
scalar RSUExampleScenario.node[27].veinsmobility minSpeed 3.9288615274745e-05
scalar RSUExampleScenario.node[27].veinsmobility maxSpeed 13.998699504088
scalar RSUExampleScenario.node[27].veinsmobility totalDistance 3250.9048131438
scalar RSUExampleScenario.node[27].veinsmobility totalCO2Emission 649.95204800335
scalar RSUExampleScenario.node[29].appl generatedWSMs 1
scalar RSUExampleScenario.node[29].appl receivedWSMs 16
scalar RSUExampleScenario.node[29].appl generatedBSMs 0
scalar RSUExampleScenario.node[29].appl receivedBSMs 0
scalar RSUExampleScenario.node[29].appl generatedWSAs 0
scalar RSUExampleScenario.node[29].appl receivedWSAs 0
scalar RSUExampleScenario.node[29].nic.phy80211p busyTime 1.0759420289855e-05
scalar RSUExampleScenario.node[29].nic.mac1609_4 ReceivedUnicastPackets 0
scalar RSUExampleScenario.node[29].nic.mac1609_4 ReceivedBroadcasts 16
scalar RSUExampleScenario.node[29].nic.mac1609_4 SentPackets 1
scalar RSUExampleScenario.node[29].nic.mac1609_4 SentAcknowledgements 0
scalar RSUExampleScenario.node[29].nic.mac1609_4 RetriesExceeded 0
scalar RSUExampleScenario.node[29].nic.mac1609_4 SNIRLostPackets 0
scalar RSUExampleScenario.node[29].nic.mac1609_4 RXTXLostPackets 0
scalar RSUExampleScenario.node[29].nic.mac1609_4 TotalLostPackets 0
scalar RSUExampleScenario.node[29].nic.mac1609_4 DroppedPacketsInMac 0
scalar RSUExampleScenario.node[29].nic.mac1609_4 TooLittleTime 0
scalar RSUExampleScenario.node[29].nic.mac1609_4 TimesIntoBackoff 1
scalar RSUExampleScenario.node[29].nic.mac1609_4 SlotsBackoff 1
scalar RSUExampleScenario.node[29].nic.mac1609_4 NumInternalContention 0
scalar RSUExampleScenario.node[29].nic.mac1609_4 totalBusyTime 0.003945
scalar RSUExampleScenario.node[29].nic.mac1609_4 retriesExceeded:count 0
attr source org_car2x_veins_modules_mac_sigRetriesExceeded
scalar RSUExampleScenario.node[29].nic.mac1609_4 sentAcks:count 0
attr source org_car2x_veins_modules_mac_sigSentAck
scalar RSUExampleScenario.node[29].nic.mac1609_4 sentPackets:count 1
attr source org_car2x_veins_modules_mac_sigSentPacket
scalar RSUExampleScenario.node[29].nic.mac1609_4 collisions:count 0
attr source org_car2x_veins_modules_mac_sigCollision
scalar RSUExampleScenario.node[29].nic.mac1609_4 channelBusy:timeavg 1.1434782608696e-05
attr source org_car2x_veins_modules_mac_sigChannelBusy
scalar RSUExampleScenario.node[29].veinsmobility startTime 88
scalar RSUExampleScenario.node[29].veinsmobility totalTime 344
scalar RSUExampleScenario.node[29].veinsmobility stopTime 433
scalar RSUExampleScenario.node[29].veinsmobility minSpeed 0.0025245117058103
scalar RSUExampleScenario.node[29].veinsmobility maxSpeed 13.999199340187
scalar RSUExampleScenario.node[29].veinsmobility totalDistance 3253.3870560858
scalar RSUExampleScenario.node[29].veinsmobility totalCO2Emission 644.80216434364
scalar RSUExampleScenario.node[28].appl generatedWSMs 1
scalar RSUExampleScenario.node[28].appl receivedWSMs 16
scalar RSUExampleScenario.node[28].appl generatedBSMs 0
scalar RSUExampleScenario.node[28].appl receivedBSMs 0
scalar RSUExampleScenario.node[28].appl generatedWSAs 0
scalar RSUExampleScenario.node[28].appl receivedWSAs 0
scalar RSUExampleScenario.node[28].nic.phy80211p busyTime 1.2594285714286e-05
scalar RSUExampleScenario.node[28].nic.mac1609_4 ReceivedUnicastPackets 0
scalar RSUExampleScenario.node[28].nic.mac1609_4 ReceivedBroadcasts 16
scalar RSUExampleScenario.node[28].nic.mac1609_4 SentPackets 1
scalar RSUExampleScenario.node[28].nic.mac1609_4 SentAcknowledgements 0
scalar RSUExampleScenario.node[28].nic.mac1609_4 RetriesExceeded 0
scalar RSUExampleScenario.node[28].nic.mac1609_4 SNIRLostPackets 3
scalar RSUExampleScenario.node[28].nic.mac1609_4 RXTXLostPackets 0
scalar RSUExampleScenario.node[28].nic.mac1609_4 TotalLostPackets 3
scalar RSUExampleScenario.node[28].nic.mac1609_4 DroppedPacketsInMac 0
scalar RSUExampleScenario.node[28].nic.mac1609_4 TooLittleTime 0
scalar RSUExampleScenario.node[28].nic.mac1609_4 TimesIntoBackoff 1
scalar RSUExampleScenario.node[28].nic.mac1609_4 SlotsBackoff 2
scalar RSUExampleScenario.node[28].nic.mac1609_4 NumInternalContention 0
scalar RSUExampleScenario.node[28].nic.mac1609_4 totalBusyTime 0.004641
scalar RSUExampleScenario.node[28].nic.mac1609_4 retriesExceeded:count 0
attr source org_car2x_veins_modules_mac_sigRetriesExceeded
scalar RSUExampleScenario.node[28].nic.mac1609_4 sentAcks:count 0
attr source org_car2x_veins_modules_mac_sigSentAck
scalar RSUExampleScenario.node[28].nic.mac1609_4 sentPackets:count 1
attr source org_car2x_veins_modules_mac_sigSentPacket
scalar RSUExampleScenario.node[28].nic.mac1609_4 collisions:count 0
attr source org_car2x_veins_modules_mac_sigCollision
scalar RSUExampleScenario.node[28].nic.mac1609_4 channelBusy:timeavg 1.326e-05
attr source org_car2x_veins_modules_mac_sigChannelBusy
scalar RSUExampleScenario.node[28].veinsmobility startTime 85
scalar RSUExampleScenario.node[28].veinsmobility totalTime 349
scalar RSUExampleScenario.node[28].veinsmobility stopTime 435
scalar RSUExampleScenario.node[28].veinsmobility minSpeed 0.0003995264012868
scalar RSUExampleScenario.node[28].veinsmobility maxSpeed 13.996607379271
scalar RSUExampleScenario.node[28].veinsmobility totalDistance 3257.5397295038
scalar RSUExampleScenario.node[28].veinsmobility totalCO2Emission 661.74205825836
scalar RSUExampleScenario.node[12].appl generatedWSMs 1
scalar RSUExampleScenario.node[12].appl receivedWSMs 24
scalar RSUExampleScenario.node[12].appl generatedBSMs 0
scalar RSUExampleScenario.node[12].appl receivedBSMs 0
[...]
scalar RSUExampleScenario.node[136].nic.mac1609_4 TimesIntoBackoff 1
scalar RSUExampleScenario.node[136].nic.mac1609_4 SlotsBackoff 2
scalar RSUExampleScenario.node[136].nic.mac1609_4 NumInternalContention 0
scalar RSUExampleScenario.node[136].nic.mac1609_4 totalBusyTime 0.006497
scalar RSUExampleScenario.node[136].nic.mac1609_4 retriesExceeded:count 0
attr source org_car2x_veins_modules_mac_sigRetriesExceeded
scalar RSUExampleScenario.node[136].nic.mac1609_4 sentAcks:count 0
attr source org_car2x_veins_modules_mac_sigSentAck
scalar RSUExampleScenario.node[136].nic.mac1609_4 sentPackets:count 1
attr source org_car2x_veins_modules_mac_sigSentPacket
scalar RSUExampleScenario.node[136].nic.mac1609_4 collisions:count 0
attr source org_car2x_veins_modules_mac_sigCollision
scalar RSUExampleScenario.node[136].nic.mac1609_4 channelBusy:timeavg 2.1162866449511e-05
attr source org_car2x_veins_modules_mac_sigChannelBusy
scalar RSUExampleScenario.node[136].veinsmobility startTime 409
scalar RSUExampleScenario.node[136].veinsmobility totalTime 306
scalar RSUExampleScenario.node[136].veinsmobility stopTime 716
scalar RSUExampleScenario.node[136].veinsmobility minSpeed 0
scalar RSUExampleScenario.node[136].veinsmobility maxSpeed 13.999984161339
scalar RSUExampleScenario.node[136].veinsmobility totalDistance 3390.6385344618
scalar RSUExampleScenario.node[136].veinsmobility totalCO2Emission 624.43642269161
scalar RSUExampleScenario.node[137].appl generatedWSMs 1
scalar RSUExampleScenario.node[137].appl receivedWSMs 27
scalar RSUExampleScenario.node[137].appl generatedBSMs 0
scalar RSUExampleScenario.node[137].appl receivedBSMs 0
scalar RSUExampleScenario.node[137].appl generatedWSAs 0
scalar RSUExampleScenario.node[137].appl receivedWSAs 0
scalar RSUExampleScenario.node[137].nic.phy80211p busyTime 2.0470588235294e-05
scalar RSUExampleScenario.node[137].nic.mac1609_4 ReceivedUnicastPackets 0
scalar RSUExampleScenario.node[137].nic.mac1609_4 ReceivedBroadcasts 27
scalar RSUExampleScenario.node[137].nic.mac1609_4 SentPackets 1
scalar RSUExampleScenario.node[137].nic.mac1609_4 SentAcknowledgements 0
scalar RSUExampleScenario.node[137].nic.mac1609_4 RetriesExceeded 0
scalar RSUExampleScenario.node[137].nic.mac1609_4 SNIRLostPackets 0
scalar RSUExampleScenario.node[137].nic.mac1609_4 RXTXLostPackets 0
scalar RSUExampleScenario.node[137].nic.mac1609_4 TotalLostPackets 0
scalar RSUExampleScenario.node[137].nic.mac1609_4 DroppedPacketsInMac 0
scalar RSUExampleScenario.node[137].nic.mac1609_4 TooLittleTime 0
scalar RSUExampleScenario.node[137].nic.mac1609_4 TimesIntoBackoff 1
scalar RSUExampleScenario.node[137].nic.mac1609_4 SlotsBackoff 3
scalar RSUExampleScenario.node[137].nic.mac1609_4 NumInternalContention 0
scalar RSUExampleScenario.node[137].nic.mac1609_4 totalBusyTime 0.006497
scalar RSUExampleScenario.node[137].nic.mac1609_4 retriesExceeded:count 0
attr source org_car2x_veins_modules_mac_sigRetriesExceeded
scalar RSUExampleScenario.node[137].nic.mac1609_4 sentAcks:count 0
attr source org_car2x_veins_modules_mac_sigSentAck
scalar RSUExampleScenario.node[137].nic.mac1609_4 sentPackets:count 1
attr source org_car2x_veins_modules_mac_sigSentPacket
scalar RSUExampleScenario.node[137].nic.mac1609_4 collisions:count 0
attr source org_car2x_veins_modules_mac_sigCollision
scalar RSUExampleScenario.node[137].nic.mac1609_4 channelBusy:timeavg 2.1232026143791e-05
attr source org_car2x_veins_modules_mac_sigChannelBusy
scalar RSUExampleScenario.node[137].veinsmobility startTime 412
scalar RSUExampleScenario.node[137].veinsmobility totalTime 305
scalar RSUExampleScenario.node[137].veinsmobility stopTime 718
scalar RSUExampleScenario.node[137].veinsmobility minSpeed 0
scalar RSUExampleScenario.node[137].veinsmobility maxSpeed 13.999526172029
scalar RSUExampleScenario.node[137].veinsmobility totalDistance 3393.751940977
scalar RSUExampleScenario.node[137].veinsmobility totalCO2Emission 623.16770945268
scalar RSUExampleScenario.node[138].appl generatedWSMs 1
scalar RSUExampleScenario.node[138].appl receivedWSMs 27
scalar RSUExampleScenario.node[138].appl generatedBSMs 0
scalar RSUExampleScenario.node[138].appl receivedBSMs 0
scalar RSUExampleScenario.node[138].appl generatedWSAs 0
scalar RSUExampleScenario.node[138].appl receivedWSAs 0
scalar RSUExampleScenario.node[138].nic.phy80211p busyTime 2.1298360655738e-05
scalar RSUExampleScenario.node[138].nic.mac1609_4 ReceivedUnicastPackets 0
scalar RSUExampleScenario.node[138].nic.mac1609_4 ReceivedBroadcasts 27
scalar RSUExampleScenario.node[138].nic.mac1609_4 SentPackets 1
scalar RSUExampleScenario.node[138].nic.mac1609_4 SentAcknowledgements 0
scalar RSUExampleScenario.node[138].nic.mac1609_4 RetriesExceeded 0
scalar RSUExampleScenario.node[138].nic.mac1609_4 SNIRLostPackets 1
scalar RSUExampleScenario.node[138].nic.mac1609_4 RXTXLostPackets 0
scalar RSUExampleScenario.node[138].nic.mac1609_4 TotalLostPackets 1
scalar RSUExampleScenario.node[138].nic.mac1609_4 DroppedPacketsInMac 0
scalar RSUExampleScenario.node[138].nic.mac1609_4 TooLittleTime 0
scalar RSUExampleScenario.node[138].nic.mac1609_4 TimesIntoBackoff 1
scalar RSUExampleScenario.node[138].nic.mac1609_4 SlotsBackoff 3
scalar RSUExampleScenario.node[138].nic.mac1609_4 NumInternalContention 0
scalar RSUExampleScenario.node[138].nic.mac1609_4 totalBusyTime 0.006729
scalar RSUExampleScenario.node[138].nic.mac1609_4 retriesExceeded:count 0
attr source org_car2x_veins_modules_mac_sigRetriesExceeded
scalar RSUExampleScenario.node[138].nic.mac1609_4 sentAcks:count 0
attr source org_car2x_veins_modules_mac_sigSentAck
scalar RSUExampleScenario.node[138].nic.mac1609_4 sentPackets:count 1
attr source org_car2x_veins_modules_mac_sigSentPacket
scalar RSUExampleScenario.node[138].nic.mac1609_4 collisions:count 0
attr source org_car2x_veins_modules_mac_sigCollision
scalar RSUExampleScenario.node[138].nic.mac1609_4 channelBusy:timeavg 2.2062295081967e-05
attr source org_car2x_veins_modules_mac_sigChannelBusy
scalar RSUExampleScenario.node[138].veinsmobility startTime 415
scalar RSUExampleScenario.node[138].veinsmobility totalTime 304
scalar RSUExampleScenario.node[138].veinsmobility stopTime 720
scalar RSUExampleScenario.node[138].veinsmobility minSpeed 0
scalar RSUExampleScenario.node[138].veinsmobility maxSpeed 13.999541670114
scalar RSUExampleScenario.node[138].veinsmobility totalDistance 3397.1100813965
scalar RSUExampleScenario.node[138].veinsmobility totalCO2Emission 617.67840591769
scalar RSUExampleScenario.node[139].appl generatedWSMs 1
scalar RSUExampleScenario.node[139].appl receivedWSMs 28
scalar RSUExampleScenario.node[139].appl generatedBSMs 0
scalar RSUExampleScenario.node[139].appl receivedBSMs 0
scalar RSUExampleScenario.node[139].appl generatedWSAs 0
scalar RSUExampleScenario.node[139].appl receivedWSAs 0
scalar RSUExampleScenario.node[139].nic.phy80211p busyTime 2.1368421052632e-05
scalar RSUExampleScenario.node[139].nic.mac1609_4 ReceivedUnicastPackets 0
scalar RSUExampleScenario.node[139].nic.mac1609_4 ReceivedBroadcasts 28
scalar RSUExampleScenario.node[139].nic.mac1609_4 SentPackets 1
scalar RSUExampleScenario.node[139].nic.mac1609_4 SentAcknowledgements 0
scalar RSUExampleScenario.node[139].nic.mac1609_4 RetriesExceeded 0
scalar RSUExampleScenario.node[139].nic.mac1609_4 SNIRLostPackets 0
scalar RSUExampleScenario.node[139].nic.mac1609_4 RXTXLostPackets 0
scalar RSUExampleScenario.node[139].nic.mac1609_4 TotalLostPackets 0
scalar RSUExampleScenario.node[139].nic.mac1609_4 DroppedPacketsInMac 0
scalar RSUExampleScenario.node[139].nic.mac1609_4 TooLittleTime 0
scalar RSUExampleScenario.node[139].nic.mac1609_4 TimesIntoBackoff 1
scalar RSUExampleScenario.node[139].nic.mac1609_4 SlotsBackoff 1
scalar RSUExampleScenario.node[139].nic.mac1609_4 NumInternalContention 0
scalar RSUExampleScenario.node[139].nic.mac1609_4 totalBusyTime 0.006729
scalar RSUExampleScenario.node[139].nic.mac1609_4 retriesExceeded:count 0
attr source org_car2x_veins_modules_mac_sigRetriesExceeded
scalar RSUExampleScenario.node[139].nic.mac1609_4 sentAcks:count 0
attr source org_car2x_veins_modules_mac_sigSentAck
scalar RSUExampleScenario.node[139].nic.mac1609_4 sentPackets:count 1
attr source org_car2x_veins_modules_mac_sigSentPacket
scalar RSUExampleScenario.node[139].nic.mac1609_4 collisions:count 0
attr source org_car2x_veins_modules_mac_sigCollision
scalar RSUExampleScenario.node[139].nic.mac1609_4 channelBusy:timeavg 2.2134868421053e-05
attr source org_car2x_veins_modules_mac_sigChannelBusy
scalar RSUExampleScenario.node[139].veinsmobility startTime 418
scalar RSUExampleScenario.node[139].veinsmobility totalTime 303
scalar RSUExampleScenario.node[139].veinsmobility stopTime 722
scalar RSUExampleScenario.node[139].veinsmobility minSpeed 0
scalar RSUExampleScenario.node[139].veinsmobility maxSpeed 13.999697746639
scalar RSUExampleScenario.node[139].veinsmobility totalDistance 3399.5364227752
scalar RSUExampleScenario.node[139].veinsmobility totalCO2Emission 619.33087020473
scalar RSUExampleScenario.node[128].appl generatedWSMs 1
scalar RSUExampleScenario.node[128].appl receivedWSMs 17
scalar RSUExampleScenario.node[128].appl generatedBSMs 0
scalar RSUExampleScenario.node[128].appl receivedBSMs 0
scalar RSUExampleScenario.node[128].appl generatedWSAs 0
scalar RSUExampleScenario.node[128].appl receivedWSAs 0
scalar RSUExampleScenario.node[128].nic.phy80211p busyTime 1.2355029585799e-05
scalar RSUExampleScenario.node[128].nic.mac1609_4 ReceivedUnicastPackets 0
scalar RSUExampleScenario.node[128].nic.mac1609_4 ReceivedBroadcasts 17
scalar RSUExampleScenario.node[128].nic.mac1609_4 SentPackets 1
scalar RSUExampleScenario.node[128].nic.mac1609_4 SentAcknowledgements 0
scalar RSUExampleScenario.node[128].nic.mac1609_4 RetriesExceeded 0
scalar RSUExampleScenario.node[128].nic.mac1609_4 SNIRLostPackets 1
scalar RSUExampleScenario.node[128].nic.mac1609_4 RXTXLostPackets 0
scalar RSUExampleScenario.node[128].nic.mac1609_4 TotalLostPackets 1
scalar RSUExampleScenario.node[128].nic.mac1609_4 DroppedPacketsInMac 0
scalar RSUExampleScenario.node[128].nic.mac1609_4 TooLittleTime 0
scalar RSUExampleScenario.node[128].nic.mac1609_4 TimesIntoBackoff 1
scalar RSUExampleScenario.node[128].nic.mac1609_4 SlotsBackoff 3
scalar RSUExampleScenario.node[128].nic.mac1609_4 NumInternalContention 0
scalar RSUExampleScenario.node[128].nic.mac1609_4 totalBusyTime 0.004409
scalar RSUExampleScenario.node[128].nic.mac1609_4 retriesExceeded:count 0
attr source org_car2x_veins_modules_mac_sigRetriesExceeded
scalar RSUExampleScenario.node[128].nic.mac1609_4 sentAcks:count 0
attr source org_car2x_veins_modules_mac_sigSentAck
scalar RSUExampleScenario.node[128].nic.mac1609_4 sentPackets:count 1
attr source org_car2x_veins_modules_mac_sigSentPacket
scalar RSUExampleScenario.node[128].nic.mac1609_4 collisions:count 0
attr source org_car2x_veins_modules_mac_sigCollision
scalar RSUExampleScenario.node[128].nic.mac1609_4 channelBusy:timeavg 1.3044378698225e-05
attr source org_car2x_veins_modules_mac_sigChannelBusy
scalar RSUExampleScenario.node[128].veinsmobility startTime 385
scalar RSUExampleScenario.node[128].veinsmobility totalTime 337
scalar RSUExampleScenario.node[128].veinsmobility stopTime 723
scalar RSUExampleScenario.node[128].veinsmobility minSpeed 0
scalar RSUExampleScenario.node[128].veinsmobility maxSpeed 13.999630663102
scalar RSUExampleScenario.node[128].veinsmobility totalDistance 3248.8082081195
scalar RSUExampleScenario.node[128].veinsmobility totalCO2Emission 685.11098628456
scalar RSUExampleScenario.node[129].appl generatedWSMs 1
scalar RSUExampleScenario.node[129].appl receivedWSMs 10
scalar RSUExampleScenario.node[129].appl generatedBSMs 0
scalar RSUExampleScenario.node[129].appl receivedBSMs 0
scalar RSUExampleScenario.node[129].appl generatedWSAs 0
scalar RSUExampleScenario.node[129].appl receivedWSAs 0
scalar RSUExampleScenario.node[129].nic.phy80211p busyTime 8.9495548961424e-06
scalar RSUExampleScenario.node[129].nic.mac1609_4 ReceivedUnicastPackets 0
scalar RSUExampleScenario.node[129].nic.mac1609_4 ReceivedBroadcasts 10
scalar RSUExampleScenario.node[129].nic.mac1609_4 SentPackets 1
scalar RSUExampleScenario.node[129].nic.mac1609_4 SentAcknowledgements 0
scalar RSUExampleScenario.node[129].nic.mac1609_4 RetriesExceeded 0
scalar RSUExampleScenario.node[129].nic.mac1609_4 SNIRLostPackets 3
scalar RSUExampleScenario.node[129].nic.mac1609_4 RXTXLostPackets 0
scalar RSUExampleScenario.node[129].nic.mac1609_4 TotalLostPackets 3
scalar RSUExampleScenario.node[129].nic.mac1609_4 DroppedPacketsInMac 0
scalar RSUExampleScenario.node[129].nic.mac1609_4 TooLittleTime 0
scalar RSUExampleScenario.node[129].nic.mac1609_4 TimesIntoBackoff 1
scalar RSUExampleScenario.node[129].nic.mac1609_4 SlotsBackoff 1
scalar RSUExampleScenario.node[129].nic.mac1609_4 NumInternalContention 0
scalar RSUExampleScenario.node[129].nic.mac1609_4 totalBusyTime 0.003249
scalar RSUExampleScenario.node[129].nic.mac1609_4 retriesExceeded:count 0
attr source org_car2x_veins_modules_mac_sigRetriesExceeded
scalar RSUExampleScenario.node[129].nic.mac1609_4 sentAcks:count 0
attr source org_car2x_veins_modules_mac_sigSentAck
scalar RSUExampleScenario.node[129].nic.mac1609_4 sentPackets:count 1
attr source org_car2x_veins_modules_mac_sigSentPacket
scalar RSUExampleScenario.node[129].nic.mac1609_4 collisions:count 0
attr source org_car2x_veins_modules_mac_sigCollision
scalar RSUExampleScenario.node[129].nic.mac1609_4 channelBusy:timeavg 9.6409495548961e-06
attr source org_car2x_veins_modules_mac_sigChannelBusy
scalar RSUExampleScenario.node[129].veinsmobility startTime 388
scalar RSUExampleScenario.node[129].veinsmobility totalTime 336
scalar RSUExampleScenario.node[129].veinsmobility stopTime 725
scalar RSUExampleScenario.node[129].veinsmobility minSpeed 0
scalar RSUExampleScenario.node[129].veinsmobility maxSpeed 13.99479380544
scalar RSUExampleScenario.node[129].veinsmobility totalDistance 3249.3555589699
scalar RSUExampleScenario.node[129].veinsmobility totalCO2Emission 677.16838229847
scalar RSUExampleScenario.node[68].appl generatedWSMs 1
scalar RSUExampleScenario.node[68].appl receivedWSMs 49
scalar RSUExampleScenario.node[68].appl generatedBSMs 0
scalar RSUExampleScenario.node[68].appl receivedBSMs 0
scalar RSUExampleScenario.node[68].appl generatedWSAs 0
scalar RSUExampleScenario.node[68].appl receivedWSAs 0
scalar RSUExampleScenario.node[68].nic.phy80211p busyTime 2.3111111111111e-05
scalar RSUExampleScenario.node[68].nic.mac1609_4 ReceivedUnicastPackets 0
scalar RSUExampleScenario.node[68].nic.mac1609_4 ReceivedBroadcasts 49
scalar RSUExampleScenario.node[68].nic.mac1609_4 SentPackets 1
scalar RSUExampleScenario.node[68].nic.mac1609_4 SentAcknowledgements 0
scalar RSUExampleScenario.node[68].nic.mac1609_4 RetriesExceeded 0
scalar RSUExampleScenario.node[68].nic.mac1609_4 SNIRLostPackets 3
scalar RSUExampleScenario.node[68].nic.mac1609_4 RXTXLostPackets 0
scalar RSUExampleScenario.node[68].nic.mac1609_4 TotalLostPackets 3
scalar RSUExampleScenario.node[68].nic.mac1609_4 DroppedPacketsInMac 0
scalar RSUExampleScenario.node[68].nic.mac1609_4 TooLittleTime 0
scalar RSUExampleScenario.node[68].nic.mac1609_4 TimesIntoBackoff 1
scalar RSUExampleScenario.node[68].nic.mac1609_4 SlotsBackoff 3
scalar RSUExampleScenario.node[68].nic.mac1609_4 NumInternalContention 0
scalar RSUExampleScenario.node[68].nic.mac1609_4 totalBusyTime 0.012297
scalar RSUExampleScenario.node[68].nic.mac1609_4 retriesExceeded:count 0
attr source org_car2x_veins_modules_mac_sigRetriesExceeded
scalar RSUExampleScenario.node[68].nic.mac1609_4 sentAcks:count 0
attr source org_car2x_veins_modules_mac_sigSentAck
scalar RSUExampleScenario.node[68].nic.mac1609_4 sentPackets:count 1
attr source org_car2x_veins_modules_mac_sigSentPacket
scalar RSUExampleScenario.node[68].nic.mac1609_4 collisions:count 0
attr source org_car2x_veins_modules_mac_sigCollision
scalar RSUExampleScenario.node[68].nic.mac1609_4 channelBusy:timeavg 2.3557471264368e-05
attr source org_car2x_veins_modules_mac_sigChannelBusy
scalar RSUExampleScenario.node[68].veinsmobility startTime 205
scalar RSUExampleScenario.node[68].veinsmobility totalTime 521
scalar RSUExampleScenario.node[68].veinsmobility stopTime 727
scalar RSUExampleScenario.node[68].veinsmobility minSpeed 0
scalar RSUExampleScenario.node[68].veinsmobility maxSpeed 13.999053940331
scalar RSUExampleScenario.node[68].veinsmobility totalDistance 3777.1976300605
scalar RSUExampleScenario.node[68].veinsmobility totalCO2Emission 964.77098943246
scalar RSUExampleScenario.node[130].appl generatedWSMs 1
scalar RSUExampleScenario.node[130].appl receivedWSMs 9
scalar RSUExampleScenario.node[130].appl generatedBSMs 0
scalar RSUExampleScenario.node[130].appl receivedBSMs 0
scalar RSUExampleScenario.node[130].appl generatedWSAs 0
scalar RSUExampleScenario.node[130].appl receivedWSAs 0
scalar RSUExampleScenario.node[130].nic.phy80211p busyTime 7.3757225433526e-06
scalar RSUExampleScenario.node[130].nic.mac1609_4 ReceivedUnicastPackets 0
scalar RSUExampleScenario.node[130].nic.mac1609_4 ReceivedBroadcasts 9
scalar RSUExampleScenario.node[130].nic.mac1609_4 SentPackets 1
scalar RSUExampleScenario.node[130].nic.mac1609_4 SentAcknowledgements 0
scalar RSUExampleScenario.node[130].nic.mac1609_4 RetriesExceeded 0
scalar RSUExampleScenario.node[130].nic.mac1609_4 SNIRLostPackets 2
scalar RSUExampleScenario.node[130].nic.mac1609_4 RXTXLostPackets 0
scalar RSUExampleScenario.node[130].nic.mac1609_4 TotalLostPackets 2
scalar RSUExampleScenario.node[130].nic.mac1609_4 DroppedPacketsInMac 0
scalar RSUExampleScenario.node[130].nic.mac1609_4 TooLittleTime 0
scalar RSUExampleScenario.node[130].nic.mac1609_4 TimesIntoBackoff 1
scalar RSUExampleScenario.node[130].nic.mac1609_4 SlotsBackoff 3
scalar RSUExampleScenario.node[130].nic.mac1609_4 NumInternalContention 0
scalar RSUExampleScenario.node[130].nic.mac1609_4 totalBusyTime 0.002785
scalar RSUExampleScenario.node[130].nic.mac1609_4 retriesExceeded:count 0
attr source org_car2x_veins_modules_mac_sigRetriesExceeded
scalar RSUExampleScenario.node[130].nic.mac1609_4 sentAcks:count 0
attr source org_car2x_veins_modules_mac_sigSentAck
scalar RSUExampleScenario.node[130].nic.mac1609_4 sentPackets:count 1
attr source org_car2x_veins_modules_mac_sigSentPacket
scalar RSUExampleScenario.node[130].nic.mac1609_4 collisions:count 0
attr source org_car2x_veins_modules_mac_sigCollision
scalar RSUExampleScenario.node[130].nic.mac1609_4 channelBusy:timeavg 8.0491329479769e-06
attr source org_car2x_veins_modules_mac_sigChannelBusy
scalar RSUExampleScenario.node[130].veinsmobility startTime 391
scalar RSUExampleScenario.node[130].veinsmobility totalTime 345
scalar RSUExampleScenario.node[130].veinsmobility stopTime 737
scalar RSUExampleScenario.node[130].veinsmobility minSpeed 0
scalar RSUExampleScenario.node[130].veinsmobility maxSpeed 13.998456606728
scalar RSUExampleScenario.node[130].veinsmobility totalDistance 3252.1355088024
scalar RSUExampleScenario.node[130].veinsmobility totalCO2Emission 696.96044750579
scalar RSUExampleScenario.node[131].appl generatedWSMs 1
scalar RSUExampleScenario.node[131].appl receivedWSMs 10
scalar RSUExampleScenario.node[131].appl generatedBSMs 0
scalar RSUExampleScenario.node[131].appl receivedBSMs 0
scalar RSUExampleScenario.node[131].appl generatedWSAs 0
scalar RSUExampleScenario.node[131].appl receivedWSAs 0
scalar RSUExampleScenario.node[131].nic.phy80211p busyTime 9.4144927536232e-06
scalar RSUExampleScenario.node[131].nic.mac1609_4 ReceivedUnicastPackets 0
scalar RSUExampleScenario.node[131].nic.mac1609_4 ReceivedBroadcasts 10
scalar RSUExampleScenario.node[131].nic.mac1609_4 SentPackets 1
scalar RSUExampleScenario.node[131].nic.mac1609_4 SentAcknowledgements 0
scalar RSUExampleScenario.node[131].nic.mac1609_4 RetriesExceeded 0
scalar RSUExampleScenario.node[131].nic.mac1609_4 SNIRLostPackets 4
scalar RSUExampleScenario.node[131].nic.mac1609_4 RXTXLostPackets 0
scalar RSUExam