                                                                
version 2
run Default-0-20260325-10:54:45-3083
attr configname Default
attr datetime 20260325-10:54:45
attr experiment Default
attr inifile omnetpp.ini
attr iterationvars ""
attr iterationvarsf ""
attr measurement ""
attr network RSUExampleScenario
attr processid 3083
attr repetition 0
attr replication #0
attr resultdir results
attr runnumber 0
attr seedset 0
param *.playgroundSizeX 2500m
param *.playgroundSizeY 2500m
param *.playgroundSizeZ 50m
param *.control.port 10001
param *.control.rsuX 1250
param *.control.rsuY 1250
param *.control.rsuR 2000
param *.control.stepS 0.1
param *.control.maxGoodputMbps 12
param *.control.minGoodputMbps 0.5
param *.control.alpha 2.0
param *.control.baseRttMs 10
param *.annotations.draw true
param *.obstacles.obstacles "xmldoc(\"config.xml\", \"//AnalogueModel[@type='SimpleObstacleShadowing']/obstacles\")"
param *.manager.updateInterval 1s
param *.manager.host "\"localhost\""
param *.manager.port 9999
param *.manager.autoShutdown true
param *.manager.launchConfig "xmldoc(\"erlangen.launchd.xml\")"
param *.rsu[0].mobility.x 1250
param *.rsu[0].mobility.y 1250
param *.rsu[0].mobility.z 3
param *.rsu[*].applType "\"TraCIDemoRSU11p\""
param *.rsu[*].appl.headerLength "80 bit"
param *.rsu[*].appl.sendBeacons false
param *.rsu[*].appl.dataOnSch false
param *.rsu[*].appl.beaconInterval 1s
param *.rsu[*].appl.beaconUserPriority 7
param *.rsu[*].appl.dataUserPriority 5
param *.rsu[*].nic.phy80211p.antennaOffsetZ "0 m"
param *.connectionManager.sendDirect true
param *.connectionManager.maxInterfDist 2600m
param *.connectionManager.drawMaxIntfDist false
param *.**.nic.mac1609_4.useServiceChannel false
param *.**.nic.mac1609_4.txPower 20mW
param *.**.nic.mac1609_4.bitrate 6Mbps
param *.**.nic.phy80211p.minPowerLevel -110dBm
param *.**.nic.phy80211p.useNoiseFloor true
param *.**.nic.phy80211p.noiseFloor -98dBm
param *.**.nic.phy80211p.decider "xmldoc(\"config.xml\")"
param *.**.nic.phy80211p.analogueModels "xmldoc(\"config.xml\")"
param *.**.nic.phy80211p.usePropagationDelay true
param *.**.nic.phy80211p.antenna "xmldoc(\"antenna.xml\", \"/root/Antenna[@id='monopole']\")"
param *.node[*].nic.phy80211p.antennaOffsetY "0 m"
param *.node[*].nic.phy80211p.antennaOffsetZ "1.895 m"
param *.node[*].applType "\"TraCIDemo11p\""
param *.node[*].appl.headerLength "80 bit"
param *.node[*].appl.sendBeacons false
param *.node[*].appl.dataOnSch false
param *.node[*].appl.beaconInterval 1s
param *.node[*].veinsmobility.x 0
param *.node[*].veinsmobility.y 0
param *.node[*].veinsmobility.z 0
param *.node[*].veinsmobility.setHostSpeed false
param *.node[*0].veinsmobility.accidentCount 1
param *.node[*0].veinsmobility.accidentStart 73s
param *.node[*0].veinsmobility.accidentDuration 50s

vector 0 RSUExampleScenario.node[0].veinsmobility posx ETV
vector 1 RSUExampleScenario.node[0].veinsmobility posy ETV
vector 2 RSUExampleScenario.node[0].veinsmobility speed ETV
vector 3 RSUExampleScenario.node[0].veinsmobility acceleration ETV
vector 4 RSUExampleScenario.node[0].veinsmobility co2emission ETV
vector 5 RSUExampleScenario.node[1].veinsmobility posx ETV
vector 6 RSUExampleScenario.node[1].veinsmobility posy ETV
vector 7 RSUExampleScenario.node[1].veinsmobility speed ETV
vector 8 RSUExampleScenario.node[1].veinsmobility acceleration ETV
vector 9 RSUExampleScenario.node[1].veinsmobility co2emission ETV
vector 10 RSUExampleScenario.node[2].veinsmobility posx ETV
vector 11 RSUExampleScenario.node[2].veinsmobility posy ETV
vector 12 RSUExampleScenario.node[2].veinsmobility speed ETV
vector 13 RSUExampleScenario.node[2].veinsmobility acceleration ETV
vector 14 RSUExampleScenario.node[2].veinsmobility co2emission ETV
vector 15 RSUExampleScenario.node[3].veinsmobility posx ETV
vector 16 RSUExampleScenario.node[3].veinsmobility posy ETV
vector 17 RSUExampleScenario.node[3].veinsmobility speed ETV
vector 18 RSUExampleScenario.node[3].veinsmobility acceleration ETV
vector 19 RSUExampleScenario.node[3].veinsmobility co2emission ETV
vector 20 RSUExampleScenario.node[4].veinsmobility posx ETV
vector 21 RSUExampleScenario.node[4].veinsmobility posy ETV
vector 22 RSUExampleScenario.node[4].veinsmobility speed ETV
vector 23 RSUExampleScenario.node[4].veinsmobility acceleration ETV
vector 24 RSUExampleScenario.node[4].veinsmobility co2emission ETV
vector 25 RSUExampleScenario.node[5].veinsmobility posx ETV
vector 26 RSUExampleScenario.node[5].veinsmobility posy ETV
vector 27 RSUExampleScenario.node[5].veinsmobility speed ETV
vector 28 RSUExampleScenario.node[5].veinsmobility acceleration ETV
vector 29 RSUExampleScenario.node[5].veinsmobility co2emission ETV
vector 30 RSUExampleScenario.node[6].veinsmobility posx ETV
vector 31 RSUExampleScenario.node[6].veinsmobility posy ETV
vector 32 RSUExampleScenario.node[6].veinsmobility speed ETV
vector 33 RSUExampleScenario.node[6].veinsmobility acceleration ETV
vector 34 RSUExampleScenario.node[6].veinsmobility co2emission ETV
vector 35 RSUExampleScenario.node[7].veinsmobility posx ETV
vector 36 RSUExampleScenario.node[7].veinsmobility posy ETV
vector 37 RSUExampleScenario.node[7].veinsmobility speed ETV
vector 38 RSUExampleScenario.node[7].veinsmobility acceleration ETV
vector 39 RSUExampleScenario.node[7].veinsmobility co2emission ETV
vector 40 RSUExampleScenario.node[8].veinsmobility posx ETV
vector 41 RSUExampleScenario.node[8].veinsmobility posy ETV
vector 42 RSUExampleScenario.node[8].veinsmobility speed ETV
vector 43 RSUExampleScenario.node[8].veinsmobility acceleration ETV
vector 44 RSUExampleScenario.node[8].veinsmobility co2emission ETV
vector 45 RSUExampleScenario.node[9].veinsmobility posx ETV
vector 46 RSUExampleScenario.node[9].veinsmobility posy ETV
vector 47 RSUExampleScenario.node[9].veinsmobility speed ETV
vector 48 RSUExampleScenario.node[9].veinsmobility acceleration ETV
vector 49 RSUExampleScenario.node[9].veinsmobility co2emission ETV
vector 50 RSUExampleScenario.node[10].veinsmobility posx ETV
vector 51 RSUExampleScenario.node[10].veinsmobility posy ETV
vector 52 RSUExampleScenario.node[10].veinsmobility speed ETV
vector 53 RSUExampleScenario.node[10].veinsmobility acceleration ETV
vector 54 RSUExampleScenario.node[10].veinsmobility co2emission ETV
vector 55 RSUExampleScenario.node[11].veinsmobility posx ETV
vector 56 RSUExampleScenario.node[11].veinsmobility posy ETV
vector 57 RSUExampleScenario.node[11].veinsmobility speed ETV
vector 58 RSUExampleScenario.node[11].veinsmobility acceleration ETV
vector 59 RSUExampleScenario.node[11].veinsmobility co2emission ETV
vector 60 RSUExampleScenario.node[12].veinsmobility posx ETV
vector 61 RSUExampleScenario.node[12].veinsmobility posy ETV
vector 62 RSUExampleScenario.node[12].veinsmobility speed ETV
vector 63 RSUExampleScenario.node[12].veinsmobility acceleration ETV
vector 64 RSUExampleScenario.node[12].veinsmobility co2emission ETV
vector 65 RSUExampleScenario.node[13].veinsmobility posx ETV
vector 66 RSUExampleScenario.node[13].veinsmobility posy ETV
vector 67 RSUExampleScenario.node[13].veinsmobility speed ETV
vector 68 RSUExampleScenario.node[13].veinsmobility acceleration ETV
vector 69 RSUExampleScenario.node[13].veinsmobility co2emission ETV
vector 70 RSUExampleScenario.node[14].veinsmobility posx ETV
vector 71 RSUExampleScenario.node[14].veinsmobility posy ETV
vector 72 RSUExampleScenario.node[14].veinsmobility speed ETV
vector 73 RSUExampleScenario.node[14].veinsmobility acceleration ETV
vector 74 RSUExampleScenario.node[14].veinsmobility co2emission ETV
vector 75 RSUExampleScenario.node[15].veinsmobility posx ETV
vector 76 RSUExampleScenario.node[15].veinsmobility posy ETV
vector 77 RSUExampleScenario.node[15].veinsmobility speed ETV
vector 78 RSUExampleScenario.node[15].veinsmobility acceleration ETV
vector 79 RSUExampleScenario.node[15].veinsmobility co2emission ETV
vector 80 RSUExampleScenario.node[16].veinsmobility posx ETV
vector 81 RSUExampleScenario.node[16].veinsmobility posy ETV
vector 82 RSUExampleScenario.node[16].veinsmobility speed ETV
vector 83 RSUExampleScenario.node[16].veinsmobility acceleration ETV
vector 84 RSUExampleScenario.node[16].veinsmobility co2emission ETV
vector 85 RSUExampleScenario.node[17].veinsmobility posx ETV
vector 86 RSUExampleScenario.node[17].veinsmobility posy ETV
vector 87 RSUExampleScenario.node[17].veinsmobility speed ETV
vector 88 RSUExampleScenario.node[17].veinsmobility acceleration ETV
vector 89 RSUExampleScenario.node[17].veinsmobility co2emission ETV
vector 90 RSUExampleScenario.node[18].veinsmobility posx ETV
vector 91 RSUExampleScenario.node[18].veinsmobility posy ETV
vector 92 RSUExampleScenario.node[18].veinsmobility speed ETV
vector 93 RSUExampleScenario.node[18].veinsmobility acceleration ETV
vector 94 RSUExampleScenario.node[18].veinsmobility co2emission ETV
vector 95 RSUExampleScenario.node[19].veinsmobility posx ETV
vector 96 RSUExampleScenario.node[19].veinsmobility posy ETV
vector 97 RSUExampleScenario.node[19].veinsmobility speed ETV
vector 98 RSUExampleScenario.node[19].veinsmobility acceleration ETV
vector 99 RSUExampleScenario.node[19].veinsmobility co2emission ETV
vector 100 RSUExampleScenario.node[20].veinsmobility posx ETV
vector 101 RSUExampleScenario.node[20].veinsmobility posy ETV
vector 102 RSUExampleScenario.node[20].veinsmobility speed ETV
vector 103 RSUExampleScenario.node[20].veinsmobility acceleration ETV
vector 104 RSUExampleScenario.node[20].veinsmobility co2emission ETV
vector 105 RSUExampleScenario.node[21].veinsmobility posx ETV
vector 106 RSUExampleScenario.node[21].veinsmobility posy ETV
vector 107 RSUExampleScenario.node[21].veinsmobility speed ETV
vector 108 RSUExampleScenario.node[21].veinsmobility acceleration ETV
vector 109 RSUExampleScenario.node[21].veinsmobility co2emission ETV
vector 110 RSUExampleScenario.node[22].veinsmobility posx ETV
vector 111 RSUExampleScenario.node[22].veinsmobility posy ETV
vector 112 RSUExampleScenario.node[22].veinsmobility speed ETV
vector 113 RSUExampleScenario.node[22].veinsmobility acceleration ETV
vector 114 RSUExampleScenario.node[22].veinsmobility co2emission ETV
vector 115 RSUExampleScenario.node[23].veinsmobility posx ETV
vector 116 RSUExampleScenario.node[23].veinsmobility posy ETV
vector 117 RSUExampleScenario.node[23].veinsmobility speed ETV
vector 118 RSUExampleScenario.node[23].veinsmobility acceleration ETV
vector 119 RSUExampleScenario.node[23].veinsmobility co2emission ETV
vector 120 RSUExampleScenario.node[24].veinsmobility posx ETV
vector 121 RSUExampleScenario.node[24].veinsmobility posy ETV
vector 122 RSUExampleScenario.node[24].veinsmobility speed ETV
vector 123 RSUExampleScenario.node[24].veinsmobility acceleration ETV
vector 124 RSUExampleScenario.node[24].veinsmobility co2emission ETV
vector 125 RSUExampleScenario.node[25].veinsmobility posx ETV
vector 126 RSUExampleScenario.node[25].veinsmobility posy ETV
vector 127 RSUExampleScenario.node[25].veinsmobility speed ETV
vector 128 RSUExampleScenario.node[25].veinsmobility acceleration ETV
vector 129 RSUExampleScenario.node[25].veinsmobility co2emission ETV
vector 130 RSUExampleScenario.node[26].veinsmobility posx ETV
vector 131 RSUExampleScenario.node[26].veinsmobility posy ETV
vector 132 RSUExampleScenario.node[26].veinsmobility speed ETV
vector 133 RSUExampleScenario.node[26].veinsmobility acceleration ETV
vector 134 RSUExampleScenario.node[26].veinsmobility co2emission ETV
vector 135 RSUExampleScenario.node[27].veinsmobility posx ETV
vector 136 RSUExampleScenario.node[27].veinsmobility posy ETV
vector 137 RSUExampleScenario.node[27].veinsmobility speed ETV
vector 138 RSUExampleScenario.node[27].veinsmobility acceleration ETV
vector 139 RSUExampleScenario.node[27].veinsmobility co2emission ETV
vector 140 RSUExampleScenario.node[28].veinsmobility posx ETV
vector 141 RSUExampleScenario.node[28].veinsmobility posy ETV
vector 142 RSUExampleScenario.node[28].veinsmobility speed ETV
vector 143 RSUExampleScenario.node[28].veinsmobility acceleration ETV
vector 144 RSUExampleScenario.node[28].veinsmobility co2emission ETV
vector 145 RSUExampleScenario.node[29].veinsmobility posx ETV
vector 146 RSUExampleScenario.node[29].veinsmobility posy ETV
vector 147 RSUExampleScenario.node[29].veinsmobility speed ETV
vector 148 RSUExampleScenario.node[29].veinsmobility acceleration ETV
vector 149 RSUExampleScenario.node[29].veinsmobility co2emission ETV
vector 150 RSUExampleScenario.node[30].veinsmobility posx ETV
vector 151 RSUExampleScenario.node[30].veinsmobility posy ETV
vector 152 RSUExampleScenario.node[30].veinsmobility speed ETV
vector 153 RSUExampleScenario.node[30].veinsmobility acceleration ETV
vector 154 RSUExampleScenario.node[30].veinsmobility co2emission ETV
vector 155 RSUExampleScenario.node[31].veinsmobility posx ETV
vector 156 RSUExampleScenario.node[31].veinsmobility posy ETV
vector 157 RSUExampleScenario.node[31].veinsmobility speed ETV
vector 158 RSUExampleScenario.node[31].veinsmobility acceleration ETV
vector 159 RSUExampleScenario.node[31].veinsmobility co2emission ETV
vector 160 RSUExampleScenario.node[32].veinsmobility posx ETV
vector 161 RSUExampleScenario.node[32].veinsmobility posy ETV
vector 162 RSUExampleScenario.node[32].veinsmobility speed ETV
vector 163 RSUExampleScenario.node[32].veinsmobility acceleration ETV
vector 164 RSUExampleScenario.node[32].veinsmobility co2emission ETV
vector 165 RSUExampleScenario.node[33].veinsmobility posx ETV
vector 166 RSUExampleScenario.node[33].veinsmobility posy ETV
vector 167 RSUExampleScenario.node[33].veinsmobility speed ETV
vector 168 RSUExampleScenario.node[33].veinsmobility acceleration ETV
vector 169 RSUExampleScenario.node[33].veinsmobility co2emission ETV
vector 170 RSUExampleScenario.node[34].veinsmobility posx ETV
vector 171 RSUExampleScenario.node[34].veinsmobility posy ETV
vector 172 RSUExampleScenario.node[34].veinsmobility speed ETV
vector 173 RSUExampleScenario.node[34].veinsmobility acceleration ETV
vector 174 RSUExampleScenario.node[34].veinsmobility co2emission ETV
vector 175 RSUExampleScenario.node[35].veinsmobility posx ETV
vector 176 RSUExampleScenario.node[35].veinsmobility posy ETV
vector 177 RSUExampleScenario.node[35].veinsmobility speed ETV
vector 178 RSUExampleScenario.node[35].veinsmobility acceleration ETV
vector 179 RSUExampleScenario.node[35].veinsmobility co2emission ETV
vector 180 RSUExampleScenario.node[36].veinsmobility posx ETV
vector 181 RSUExampleScenario.node[36].veinsmobility posy ETV
vector 182 RSUExampleScenario.node[36].veinsmobility speed ETV
vector 183 RSUExampleScenario.node[36].veinsmobility acceleration ETV
vector 184 RSUExampleScenario.node[36].veinsmobility co2emission ETV
vector 185 RSUExampleScenario.node[37].veinsmobility posx ETV
vector 186 RSUExampleScenario.node[37].veinsmobility posy ETV
vector 187 RSUExampleScenario.node[37].veinsmobility speed ETV
vector 188 RSUExampleScenario.node[37].veinsmobility acceleration ETV
vector 189 RSUExampleScenario.node[37].veinsmobility co2emission ETV
vector 190 RSUExampleScenario.node[38].veinsmobility posx ETV
vector 191 RSUExampleScenario.node[38].veinsmobility posy ETV
vector 192 RSUExampleScenario.node[38].veinsmobility speed ETV
vector 193 RSUExampleScenario.node[38].veinsmobility acceleration ETV
vector 194 RSUExampleScenario.node[38].veinsmobility co2emission ETV
vector 195 RSUExampleScenario.node[39].veinsmobility posx ETV
vector 196 RSUExampleScenario.node[39].veinsmobility posy ETV
vector 197 RSUExampleScenario.node[39].veinsmobility speed ETV
vector 198 RSUExampleScenario.node[39].veinsmobility acceleration ETV
vector 199 RSUExampleScenario.node[39].veinsmobility co2emission ETV
vector 200 RSUExampleScenario.node[40].veinsmobility posx ETV
vector 201 RSUExampleScenario.node[40].veinsmobility posy ETV
vector 202 RSUExampleScenario.node[40].veinsmobility speed ETV
vector 203 RSUExampleScenario.node[40].veinsmobility acceleration ETV
vector 204 RSUExampleScenario.node[40].veinsmobility co2emission ETV
vector 205 RSUExampleScenario.node[41].veinsmobility posx ETV
vector 206 RSUExampleScenario.node[41].veinsmobility posy ETV
vector 207 RSUExampleScenario.node[41].veinsmobility speed ETV
vector 208 RSUExampleScenario.node[41].veinsmobility acceleration ETV
vector 209 RSUExampleScenario.node[41].veinsmobility co2emission ETV
vector 210 RSUExampleScenario.node[42].veinsmobility posx ETV
vector 211 RSUExampleScenario.node[42].veinsmobility posy ETV
vector 212 RSUExampleScenario.node[42].veinsmobility speed ETV
vector 213 RSUExampleScenario.node[42].veinsmobility acceleration ETV
vector 214 RSUExampleScenario.node[42].veinsmobility co2emission ETV
vector 215 RSUExampleScenario.node[43].veinsmobility posx ETV
vector 216 RSUExampleScenario.node[43].veinsmobility posy ETV
vector 217 RSUExampleScenario.node[43].veinsmobility speed ETV
vector 218 RSUExampleScenario.node[43].veinsmobility acceleration ETV
vector 219 RSUExampleScenario.node[43].veinsmobility co2emission ETV
vector 220 RSUExampleScenario.node[44].veinsmobility posx ETV
vector 221 RSUExampleScenario.node[44].veinsmobility posy ETV
vector 222 RSUExampleScenario.node[44].veinsmobility speed ETV
vector 223 RSUExampleScenario.node[44].veinsmobility acceleration ETV
vector 224 RSUExampleScenario.node[44].veinsmobility co2emission ETV
vector 225 RSUExampleScenario.node[45].veinsmobility posx ETV
vector 226 RSUExampleScenario.node[45].veinsmobility posy ETV
vector 227 RSUExampleScenario.node[45].veinsmobility speed ETV
vector 228 RSUExampleScenario.node[45].veinsmobility acceleration ETV
vector 229 RSUExampleScenario.node[45].veinsmobility co2emission ETV
vector 230 RSUExampleScenario.node[46].veinsmobility posx ETV
vector 231 RSUExampleScenario.node[46].veinsmobility posy ETV
vector 232 RSUExampleScenario.node[46].veinsmobility speed ETV
vector 233 RSUExampleScenario.node[46].veinsmobility acceleration ETV
vector 234 RSUExampleScenario.node[46].veinsmobility co2emission ETV
vector 235 RSUExampleScenario.node[47].veinsmobility posx ETV
vector 236 RSUExampleScenario.node[47].veinsmobility posy ETV
vector 237 RSUExampleScenario.node[47].veinsmobility speed ETV
vector 238 RSUExampleScenario.node[47].veinsmobility acceleration ETV
vector 239 RSUExampleScenario.node[47].veinsmobility co2emission ETV
vector 240 RSUExampleScenario.node[48].veinsmobility posx ETV
vector 241 RSUExampleScenario.node[48].veinsmobility posy ETV
vector 242 RSUExampleScenario.node[48].veinsmobility speed ETV
vector 243 RSUExampleScenario.node[48].veinsmobility acceleration ETV
vector 244 RSUExampleScenario.node[48].veinsmobility co2emission ETV
vector 245 RSUExampleScenario.node[49].veinsmobility posx ETV
vector 246 RSUExampleScenario.node[49].veinsmobility posy ETV
vector 247 RSUExampleScenario.node[49].veinsmobility speed ETV
vector 248 RSUExampleScenario.node[49].veinsmobility acceleration ETV
vector 249 RSUExampleScenario.node[49].veinsmobility co2emission ETV
vector 250 RSUExampleScenario.node[50].veinsmobility posx ETV
vector 251 RSUExampleScenario.node[50].veinsmobility posy ETV
vector 252 RSUExampleScenario.node[50].veinsmobility speed ETV
vector 253 RSUExampleScenario.node[50].veinsmobility acceleration ETV
vector 254 RSUExampleScenario.node[50].veinsmobility co2emission ETV
vector 255 RSUExampleScenario.node[51].veinsmobility posx ETV
vector 256 RSUExampleScenario.node[51].veinsmobility posy ETV
vector 257 RSUExampleScenario.node[51].veinsmobility speed ETV
vector 258 RSUExampleScenario.node[51].veinsmobility acceleration ETV
vector 259 RSUExampleScenario.node[51].veinsmobility co2emission ETV
vector 260 RSUExampleScenario.node[52].veinsmobility posx ETV
vector 261 RSUExampleScenario.node[52].veinsmobility posy ETV
vector 262 RSUExampleScenario.node[52].veinsmobility speed ETV
vector 263 RSUExampleScenario.node[52].veinsmobility acceleration ETV
vector 264 RSUExampleScenario.node[52].veinsmobility co2emission ETV
vector 265 RSUExampleScenario.node[53].veinsmobility posx ETV
vector 266 RSUExampleScenario.node[53].veinsmobility posy ETV
vector 267 RSUExampleScenario.node[53].veinsmobility speed ETV
vector 268 RSUExampleScenario.node[53].veinsmobility acceleration ETV
vector 269 RSUExampleScenario.node[53].veinsmobility co2emission ETV
vector 270 RSUExampleScenario.node[54].veinsmobility posx ETV
vector 271 RSUExampleScenario.node[54].veinsmobility posy ETV
vector 272 RSUExampleScenario.node[54].veinsmobility speed ETV
vector 273 RSUExampleScenario.node[54].veinsmobility acceleration ETV
vector 274 RSUExampleScenario.node[54].veinsmobility co2emission ETV
vector 275 RSUExampleScenario.node[55].veinsmobility posx ETV
vector 276 RSUExampleScenario.node[55].veinsmobility posy ETV
vector 277 RSUExampleScenario.node[55].veinsmobility speed ETV
vector 278 RSUExampleScenario.node[55].veinsmobility acceleration ETV
vector 279 RSUExampleScenario.node[55].veinsmobility co2emission ETV
vector 280 RSUExampleScenario.node[56].veinsmobility posx ETV
vector 281 RSUExampleScenario.node[56].veinsmobility posy ETV
vector 282 RSUExampleScenario.node[56].veinsmobility speed ETV
vector 283 RSUExampleScenario.node[56].veinsmobility acceleration ETV
vector 284 RSUExampleScenario.node[56].veinsmobility co2emission ETV
vector 285 RSUExampleScenario.node[57].veinsmobility posx ETV
vector 286 RSUExampleScenario.node[57].veinsmobility posy ETV
vector 287 RSUExampleScenario.node[57].veinsmobility speed ETV
vector 288 RSUExampleScenario.node[57].veinsmobility acceleration ETV
vector 289 RSUExampleScenario.node[57].veinsmobility co2emission ETV
vector 290 RSUExampleScenario.node[58].veinsmobility posx ETV
vector 291 RSUExampleScenario.node[58].veinsmobility posy ETV
vector 292 RSUExampleScenario.node[58].veinsmobility speed ETV
vector 293 RSUExampleScenario.node[58].veinsmobility acceleration ETV
vector 294 RSUExampleScenario.node[58].veinsmobility co2emission ETV
vector 295 RSUExampleScenario.node[59].veinsmobility posx ETV
vector 296 RSUExampleScenario.node[59].veinsmobility posy ETV
vector 297 RSUExampleScenario.node[59].veinsmobility speed ETV
vector 298 RSUExampleScenario.node[59].veinsmobility acceleration ETV
vector 299 RSUExampleScenario.node[59].veinsmobility co2emission ETV
vector 300 RSUExampleScenario.node[60].veinsmobility posx ETV
vector 301 RSUExampleScenario.node[60].veinsmobility posy ETV
vector 302 RSUExampleScenario.node[60].veinsmobility speed ETV
vector 303 RSUExampleScenario.node[60].veinsmobility acceleration ETV
vector 304 RSUExampleScenario.node[60].veinsmobility co2emission ETV
vector 305 RSUExampleScenario.node[61].veinsmobility posx ETV
vector 306 RSUExampleScenario.node[61].veinsmobility posy ETV
vector 307 RSUExampleScenario.node[61].veinsmobility speed ETV
vector 308 RSUExampleScenario.node[61].veinsmobility acceleration ETV
vector 309 RSUExampleScenario.node[61].veinsmobility co2emission ETV
vector 310 RSUExampleScenario.node[62].veinsmobility posx ETV
vector 311 RSUExampleScenario.node[62].veinsmobility posy ETV
vector 312 RSUExampleScenario.node[62].veinsmobility speed ETV
vector 313 RSUExampleScenario.node[62].veinsmobility acceleration ETV
vector 314 RSUExampleScenario.node[62].veinsmobility co2emission ETV
vector 315 RSUExampleScenario.node[63].veinsmobility posx ETV
vector 316 RSUExampleScenario.node[63].veinsmobility posy ETV
vector 317 RSUExampleScenario.node[63].veinsmobility speed ETV
vector 318 RSUExampleScenario.node[63].veinsmobility acceleration ETV
vector 319 RSUExampleScenario.node[63].veinsmobility co2emission ETV
vector 320 RSUExampleScenario.node[64].veinsmobility posx ETV
vector 321 RSUExampleScenario.node[64].veinsmobility posy ETV
vector 322 RSUExampleScenario.node[64].veinsmobility speed ETV
vector 323 RSUExampleScenario.node[64].veinsmobility acceleration ETV
vector 324 RSUExampleScenario.node[64].veinsmobility co2emission ETV
vector 325 RSUExampleScenario.node[65].veinsmobility posx ETV
vector 326 RSUExampleScenario.node[65].veinsmobility posy ETV
vector 327 RSUExampleScenario.node[65].veinsmobility speed ETV
vector 328 RSUExampleScenario.node[65].veinsmobility acceleration ETV
vector 329 RSUExampleScenario.node[65].veinsmobility co2emission ETV
vector 330 RSUExampleScenario.node[66].veinsmobility posx ETV
vector 331 RSUExampleScenario.node[66].veinsmobility posy ETV
vector 332 RSUExampleScenario.node[66].veinsmobility speed ETV
vector 333 RSUExampleScenario.node[66].veinsmobility acceleration ETV
vector 334 RSUExampleScenario.node[66].veinsmobility co2emission ETV
vector 335 RSUExampleScenario.node[67].veinsmobility posx ETV
vector 336 RSUExampleScenario.node[67].veinsmobility posy ETV
vector 337 RSUExampleScenario.node[67].veinsmobility speed ETV
vector 338 RSUExampleScenario.node[67].veinsmobility acceleration ETV
vector 339 RSUExampleScenario.node[67].veinsmobility co2emission ETV
vector 340 RSUExampleScenario.node[68].veinsmobility posx ETV
vector 341 RSUExampleScenario.node[68].veinsmobility posy ETV
vector 342 RSUExampleScenario.node[68].veinsmobility speed ETV
vector 343 RSUExampleScenario.node[68].veinsmobility acceleration ETV
vector 344 RSUExampleScenario.node[68].veinsmobility co2emission ETV
vector 345 RSUExampleScenario.node[69].veinsmobility posx ETV
vector 346 RSUExampleScenario.node[69].veinsmobility posy ETV
vector 347 RSUExampleScenario.node[69].veinsmobility speed ETV
vector 348 RSUExampleScenario.node[69].veinsmobility acceleration ETV
vector 349 RSUExampleScenario.node[69].veinsmobility co2emission ETV
vector 350 RSUExampleScenario.node[70].veinsmobility posx ETV
vector 351 RSUExampleScenario.node[70].veinsmobility posy ETV
vector 352 RSUExampleScenario.node[70].veinsmobility speed ETV
vector 353 RSUExampleScenario.node[70].veinsmobility acceleration ETV
vector 354 RSUExampleScenario.node[70].veinsmobility co2emission ETV
vector 355 RSUExampleScenario.node[71].veinsmobility posx ETV
vector 356 RSUExampleScenario.node[71].veinsmobility posy ETV
vector 357 RSUExampleScenario.node[71].veinsmobility speed ETV
vector 358 RSUExampleScenario.node[71].veinsmobility acceleration ETV
vector 359 RSUExampleScenario.node[71].veinsmobility co2emission ETV
vector 360 RSUExampleScenario.node[72].veinsmobility posx ETV
vector 361 RSUExampleScenario.node[72].veinsmobility posy ETV
vector 362 RSUExampleScenario.node[72].veinsmobility speed ETV
vector 363 RSUExampleScenario.node[72].veinsmobility acceleration ETV
vector 364 RSUExampleScenario.node[72].veinsmobility co2emission ETV
vector 365 RSUExampleScenario.node[73].veinsmobility posx ETV
vector 366 RSUExampleScenario.node[73].veinsmobility posy ETV
vector 367 RSUExampleScenario.node[73].veinsmobility speed ETV
vector 368 RSUExampleScenario.node[73].veinsmobility acceleration ETV
vector 369 RSUExampleScenario.node[73].veinsmobility co2emission ETV
vector 370 RSUExampleScenario.node[74].veinsmobility posx ETV
vector 371 RSUExampleScenario.node[74].veinsmobility posy ETV
vector 372 RSUExampleScenario.node[74].veinsmobility speed ETV
vector 373 RSUExampleScenario.node[74].veinsmobility acceleration ETV
vector 374 RSUExampleScenario.node[74].veinsmobility co2emission ETV
vector 375 RSUExampleScenario.node[75].veinsmobility posx ETV
vector 376 RSUExampleScenario.node[75].veinsmobility posy ETV
vector 377 RSUExampleScenario.node[75].veinsmobility speed ETV
vector 378 RSUExampleScenario.node[75].veinsmobility acceleration ETV
vector 379 RSUExampleScenario.node[75].veinsmobility co2emission ETV
vector 380 RSUExampleScenario.node[76].veinsmobility posx ETV
vector 381 RSUExampleScenario.node[76].veinsmobility posy ETV
vector 382 RSUExampleScenario.node[76].veinsmobility speed ETV
vector 383 RSUExampleScenario.node[76].veinsmobility acceleration ETV
vector 384 RSUExampleScenario.node[76].veinsmobility co2emission ETV
vector 385 RSUExampleScenario.node[77].veinsmobility posx ETV
vector 386 RSUExampleScenario.node[77].veinsmobility posy ETV
vector 387 RSUExampleScenario.node[77].veinsmobility speed ETV
vector 388 RSUExampleScenario.node[77].veinsmobility acceleration ETV
vector 389 RSUExampleScenario.node[77].veinsmobility co2emission ETV
vector 390 RSUExampleScenario.node[78].veinsmobility posx ETV
vector 391 RSUExampleScenario.node[78].veinsmobility posy ETV
vector 392 RSUExampleScenario.node[78].veinsmobility speed ETV
vector 393 RSUExampleScenario.node[78].veinsmobility acceleration ETV
vector 394 RSUExampleScenario.node[78].veinsmobility co2emission ETV
vector 395 RSUExampleScenario.node[79].veinsmobility posx ETV
vector 396 RSUExampleScenario.node[79].veinsmobility posy ETV
vector 397 RSUExampleScenario.node[79].veinsmobility speed ETV
vector 398 RSUExampleScenario.node[79].veinsmobility acceleration ETV
vector 399 RSUExampleScenario.node[79].veinsmobility co2emission ETV
vector 400 RSUExampleScenario.node[80].veinsmobility posx ETV
vector 401 RSUExampleScenario.node[80].veinsmobility posy ETV
vector 402 RSUExampleScenario.node[80].veinsmobility speed ETV
vector 403 RSUExampleScenario.node[80].veinsmobility acceleration ETV
vector 404 RSUExampleScenario.node[80].veinsmobility co2emission ETV
vector 405 RSUExampleScenario.node[81].veinsmobility posx ETV
vector 406 RSUExampleScenario.node[81].veinsmobility posy ETV
vector 407 RSUExampleScenario.node[81].veinsmobility speed ETV
vector 408 RSUExampleScenario.node[81].veinsmobility acceleration ETV
vector 409 RSUExampleScenario.node[81].veinsmobility co2emission ETV
vector 410 RSUExampleScenario.node[82].veinsmobility posx ETV
vector 411 RSUExampleScenario.node[82].veinsmobility posy ETV
vector 412 RSUExampleScenario.node[82].veinsmobility speed ETV
vector 413 RSUExampleScenario.node[82].veinsmobility acceleration ETV
vector 414 RSUExampleScenario.node[82].veinsmobility co2emission ETV
vector 415 RSUExampleScenario.node[83].veinsmobility posx ETV
vector 416 RSUExampleScenario.node[83].veinsmobility posy ETV
vector 417 RSUExampleScenario.node[83].veinsmobility speed ETV
vector 418 RSUExampleScenario.node[83].veinsmobility acceleration ETV
vector 419 RSUExampleScenario.node[83].veinsmobility co2emission ETV
vector 420 RSUExampleScenario.node[84].veinsmobility posx ETV
vector 421 RSUExampleScenario.node[84].veinsmobility posy ETV
vector 422 RSUExampleScenario.node[84].veinsmobility speed ETV
vector 423 RSUExampleScenario.node[84].veinsmobility acceleration ETV
vector 424 RSUExampleScenario.node[84].veinsmobility co2emission ETV
vector 425 RSUExampleScenario.node[85].veinsmobility posx ETV
vector 426 RSUExampleScenario.node[85].veinsmobility posy ETV
vector 427 RSUExampleScenario.node[85].veinsmobility speed ETV
vector 428 RSUExampleScenario.node[85].veinsmobility acceleration ETV
vector 429 RSUExampleScenario.node[85].veinsmobility co2emission ETV
vector 430 RSUExampleScenario.node[86].veinsmobility posx ETV
vector 431 RSUExampleScenario.node[86].veinsmobility posy ETV
vector 432 RSUExampleScenario.node[86].veinsmobility speed ETV
vector 433 RSUExampleScenario.node[86].veinsmobility acceleration ETV
vector 434 RSUExampleScenario.node[86].veinsmobility co2emission ETV
vector 435 RSUExampleScenario.node[87].veinsmobility posx ETV
vector 436 RSUExampleScenario.node[87].veinsmobility posy ETV
vector 437 RSUExampleScenario.node[87].veinsmobility speed ETV
vector 438 RSUExampleScenario.node[87].veinsmobility acceleration ETV
vector 439 RSUExampleScenario.node[87].veinsmobility co2emission ETV
vector 440 RSUExampleScenario.node[88].veinsmobility posx ETV
vector 441 RSUExampleScenario.node[88].veinsmobility posy ETV
vector 442 RSUExampleScenario.node[88].veinsmobility speed ETV
vector 443 RSUExampleScenario.node[88].veinsmobility acceleration ETV
vector 444 RSUExampleScenario.node[88].veinsmobility co2emission ETV
vector 445 RSUExampleScenario.node[89].veinsmobility posx ETV
vector 446 RSUExampleScenario.node[89].veinsmobility posy ETV
vector 447 RSUExampleScenario.node[89].veinsmobility speed ETV
vector 448 RSUExampleScenario.node[89].veinsmobility acceleration ETV
vector 449 RSUExampleScenario.node[89].veinsmobility co2emission ETV
vector 450 RSUExampleScenario.node[90].veinsmobility posx ETV
vector 451 RSUExampleScenario.node[90].veinsmobility posy ETV
vector 452 RSUExampleScenario.node[90].veinsmobility speed ETV
vector 453 RSUExampleScenario.node[90].veinsmobility acceleration ETV
vector 454 RSUExampleScenario.node[90].veinsmobility co2emission ETV
vector 455 RSUExampleScenario.node[91].veinsmobility posx ETV
vector 456 RSUExampleScenario.node[91].veinsmobility posy ETV
vector 457 RSUExampleScenario.node[91].veinsmobility speed ETV
vector 458 RSUExampleScenario.node[91].veinsmobility acceleration ETV
vector 459 RSUExampleScenario.node[91].veinsmobility co2emission ETV
vector 460 RSUExampleScenario.node[92].veinsmobility posx ETV
vector 461 RSUExampleScenario.node[92].veinsmobility posy ETV
vector 462 RSUExampleScenario.node[92].veinsmobility speed ETV
vector 463 RSUExampleScenario.node[92].veinsmobility acceleration ETV
vector 464 RSUExampleScenario.node[92].veinsmobility co2emission ETV
vector 465 RSUExampleScenario.node[93].veinsmobility posx ETV
vector 466 RSUExampleScenario.node[93].veinsmobility posy ETV
vector 467 RSUExampleScenario.node[93].veinsmobility speed ETV
vector 468 RSUExampleScenario.node[93].veinsmobility acceleration ETV
vector 469 RSUExampleScenario.node[93].veinsmobility co2emission ETV
vector 470 RSUExampleScenario.node[94].veinsmobility posx ETV
vector 471 RSUExampleScenario.node[94].veinsmobility posy ETV
vector 472 RSUExampleScenario.node[94].veinsmobility speed ETV
vector 473 RSUExampleScenario.node[94].veinsmobility acceleration ETV
vector 474 RSUExampleScenario.node[94].veinsmobility co2emission ETV
vector 475 RSUExampleScenario.node[95].veinsmobility posx ETV
vector 476 RSUExampleScenario.node[95].veinsmobility posy ETV
vector 477 RSUExampleScenario.node[95].veinsmobility speed ETV
vector 478 RSUExampleScenario.node[95].veinsmobility acceleration ETV
vector 479 RSUExampleScenario.node[95].veinsmobility co2emission ETV
vector 480 RSUExampleScenario.node[96].veinsmobility posx ETV
vector 481 RSUExampleScenario.node[96].veinsmobility posy ETV
vector 482 RSUExampleScenario.node[96].veinsmobility speed ETV
vector 483 RSUExampleScenario.node[96].veinsmobility acceleration ETV
vector 484 RSUExampleScenario.node[96].veinsmobility co2emission ETV
vector 485 RSUExampleScenario.node[97].veinsmobility posx ETV
vector 486 RSUExampleScenario.node[97].veinsmobility posy ETV
vector 487 RSUExampleScenario.node[97].veinsmobility speed ETV
vector 488 RSUExampleScenario.node[97].veinsmobility acceleration ETV
vector 489 RSUExampleScenario.node[97].veinsmobility co2emission ETV
vector 490 RSUExampleScenario.node[98].veinsmobility posx ETV
vector 491 RSUExampleScenario.node[98].veinsmobility posy ETV
vector 492 RSUExampleScenario.node[98].veinsmobility speed ETV
vector 493 RSUExampleScenario.node[98].veinsmobility acceleration ETV
vector 494 RSUExampleScenario.node[98].veinsmobility co2emission ETV
vector 495 RSUExampleScenario.node[99].veinsmobility posx ETV
vector 496 RSUExampleScenario.node[99].veinsmobility posy ETV
vector 497 RSUExampleScenario.node[99].veinsmobility speed ETV
vector 498 RSUExampleScenario.node[99].veinsmobility acceleration ETV
vector 499 RSUExampleScenario.node[99].veinsmobility co2emission ETV
vector 500 RSUExampleScenario.node[100].veinsmobility posx ETV
vector 501 RSUExampleScenario.node[100].veinsmobility posy ETV
vector 502 RSUExampleScenario.node[100].veinsmobility speed ETV
vector 503 RSUExampleScenario.node[100].veinsmobility acceleration ETV
vector 504 RSUExampleScenario.node[100].veinsmobility co2emission ETV
vector 505 RSUExampleScenario.node[101].veinsmobility posx ETV
vector 506 RSUExampleScenario.node[101].veinsmobility posy ETV
4	35635 7504 36 23923 3 304 302 0.973 8.9023657158011 628.22435991132 1732.8934052753
3	43139 7952 36 23923 3 304 302 -4.5 2.4545011921204 6.773598567742 179.51497782226
2	51091 7399 25 23923 2 304 303 0 13.999815066161 3406.3145589471 46573.484538191
1	58490 8107 14 23923 1 304 304 1218.6422723019 2120.9360540062 514849.46956073 901628848.83877
0	66597 8108 14 23923 1 304 304 201.88693706866 2450.6248001783 493002.7619967 957829028.39961
vector 507 RSUExampleScenario.node[101].veinsmobility speed ETV
vector 508 RSUExampleScenario.node[101].veinsmobility acceleration ETV
vector 509 RSUExampleScenario.node[101].veinsmobility co2emission ETV
9	74910 7550 69 23945 6 306 301 0.973 8.4455276517466 625.39052784689 1688.7101077806
8	82460 8220 69 23945 6 306 301 -4.4608324981877 2.1134036070667 6.4838826987027 142.60161256209
7	90680 7622 58 23945 5 306 302 0 13.999347892485 3405.3887330903 46296.170707275
6	98302 8083 47 23945 4 306 303 1216.2200569827 2120.5707901428 512556.54082294 896521285.86257
5	106385 8094 47 23945 4 306 303 202.22515102639 2450.4780716181 489285.96931955 949656448.17345
vector 510 RSUExampleScenario.node[102].veinsmobility posx ETV
vector 511 RSUExampleScenario.node[102].veinsmobility posy ETV
vector 512 RSUExampleScenario.node[102].veinsmobility speed ETV
14	114669 7867 102 23967 9 308 300 0.973 8.2469806235914 624.80765717693 1697.1429350586
13	122536 8547 102 23967 9 308 300 -4.439656564949 2.4037524497532 6.7700398272523 131.31259362926
12	131083 7964 91 23967 8 308 301 0 13.999785439738 3408.4335930935 46207.853896863
11	139047 8344 80 23967 7 308 302 1217.2106902963 2120.9589145361 509715.93794621 889794853.24997
10	147391 8343 80 23967 7 308 302 201.0184202604 2450.659299592 485896.48545582 942373395.05304
vector 513 RSUExampleScenario.node[102].veinsmobility acceleration ETV
vector 514 RSUExampleScenario.node[102].veinsmobility co2emission ETV
vector 515 RSUExampleScenario.node[103].veinsmobility posx ETV
vector 516 RSUExampleScenario.node[103].veinsmobility posy ETV
19	156001 7824 135 23989 12 310 299 0.973 9.0781788753216 626.15169697705 1728.4783936449
18	163825 8572 135 23989 12 310 299 -4.4516438954996 2.1600366940722 6.6221211869748 134.81200491206
17	172397 7995 124 23989 11 310 300 0 13.999869057706 3407.5558148555 46058.662548449
16	180392 8368 113 23989 10 310 301 1217.8310334291 2120.90069908 507539.35117583 885094915.20951
15	188760 8364 113 23989 10 310 301 200.54553081596 2450.5176811377 482126.60981975 933846038.32613
vector 517 RSUExampleScenario.node[103].veinsmobility speed ETV
vector 518 RSUExampleScenario.node[103].veinsmobility acceleration ETV
vector 519 RSUExampleScenario.node[103].veinsmobility co2emission ETV
vector 520 RSUExampleScenario.node[104].veinsmobility posx ETV
vector 521 RSUExampleScenario.node[104].veinsmobility posy ETV
vector 522 RSUExampleScenario.node[104].veinsmobility speed ETV
24	197519 7950 168 24034 15 314 300 0.973 8.3105242583869 617.59145351079 1616.0611654028
23	205469 8675 168 24034 15 314 300 -4.5 2.2053875824949 6.2113633707499 130.40701353469
22	214144 8083 157 24034 14 314 301 0 13.999121439538 3405.5482882321 45189.567422053
21	222227 8402 146 24034 13 314 302 1216.3043720657 2120.7883864809 506775.14495154 879616385.65995
20	230629 8403 146 24034 13 314 302 202.92130382895 2450.2645866362 480652.58175786 930022955.84895
vector 523 RSUExampleScenario.node[104].veinsmobility acceleration ETV
vector 524 RSUExampleScenario.node[104].veinsmobility co2emission ETV
vector 525 RSUExampleScenario.node[105].veinsmobility posx ETV
vector 526 RSUExampleScenario.node[105].veinsmobility posy ETV
29	239299 7919 201 24056 18 316 299 0.973 8.8530434321966 620.46606165038 1699.5982718343
28	247218 8702 201 24056 18 316 299 -3.1675129769766 2.2735716874478 6.5895626124595 125.66471861307
27	255920 8104 190 24056 17 316 300 0 13.999107769125 3407.2150197657 45289.464904105
26	264024 8378 179 24056 16 316 301 1218.1296974188 2120.7722106203 504889.35357242 876135554.94081
25	272402 8388 179 24056 16 316 301 202.04427920235 2450.2291497608 477369.74480051 922664619.42731
vector 527 RSUExampleScenario.node[105].veinsmobility speed ETV
vector 528 RSUExampleScenario.node[105].veinsmobility acceleration ETV
vector 529 RSUExampleScenario.node[105].veinsmobility co2emission ETV
34	280995 7939 234 24078 21 318 298 0.973 8.4134401336488 617.52684790294 1658.2079444502
33	288934 8733 234 24078 21 318 298 -4.5 2.3279801330832 6.4119648287154 128.82517455747
32	297667 8138 223 24078 20 318 299 0 13.999044324374 3407.3174345711 45154.791562123
31	305805 8368 212 24078 19 318 300 1216.1105616093 2120.8566767089 502447.27988412 870574534.77947
30	314173 8347 212 24078 19 318 300 201.17850202741 2450.4280289282 474265.30976304 916098898.86566
vector 530 RSUExampleScenario.node[106].veinsmobility posx ETV
vector 531 RSUExampleScenario.node[106].veinsmobility posy ETV
44	322646 7842 303 24089 27 319 293 0.973 8.3687084538672 600.86223620213 1606.6401149781
43	330488 8726 303 24089 27 319 293 -2.5356489940785 2.2392650089366 5.0594096968394 107.53085260686
42	339214 8126 292 24089 26 319 294 0 13.999109892272 3397.0124627279 44551.11848443
41	347340 8242 278 24089 25 319 295 1216.5046283286 2120.8294082657 492872.19478891 851261812.69756
40	355582 8214 278 24089 25 319 295 204.60778534133 2450.3239084678 468273.81004319 907771419.25419
vector 532 RSUExampleScenario.node[106].veinsmobility speed ETV
vector 533 RSUExampleScenario.node[106].veinsmobility acceleration ETV
vector 534 RSUExampleScenario.node[106].veinsmobility co2emission ETV
49	364001 7811 338 24111 30 321 292 0.973 8.5064913561613 600.98249863082 1619.3291600292
48	371812 8728 338 24111 30 321 292 -2.1823455372089 2.199999460706 5.8243756518864 98.847610342546
47	380540 8164 327 24111 29 321 293 0 13.999562605268 3402.2829475765 44797.438084842
46	388704 8217 314 24111 28 321 294 1216.8760010861 2120.7816550871 491210.10550656 848603499.71588
45	396921 8207 314 24111 28 321 294 204.01034141798 2450.5540833102 465200.07926508 900503412.16756
vector 535 RSUExampleScenario.node[107].veinsmobility posx ETV
vector 536 RSUExampleScenario.node[107].veinsmobility posy ETV
vector 537 RSUExampleScenario.node[107].veinsmobility speed ETV
vector 538 RSUExampleScenario.node[107].veinsmobility acceleration ETV
vector 539 RSUExampleScenario.node[107].veinsmobility co2emission ETV
vector 540 RSUExampleScenario.node[108].veinsmobility posx ETV
vector 541 RSUExampleScenario.node[108].veinsmobility posy ETV
vector 542 RSUExampleScenario.node[108].veinsmobility speed ETV
vector 543 RSUExampleScenario.node[108].veinsmobility acceleration ETV
vector 544 RSUExampleScenario.node[108].veinsmobility co2emission ETV
vector 545 RSUExampleScenario.node[109].veinsmobility posx ETV
vector 546 RSUExampleScenario.node[109].veinsmobility posy ETV
vector 547 RSUExampleScenario.node[109].veinsmobility speed ETV
vector 548 RSUExampleScenario.node[109].veinsmobility acceleration ETV
vector 549 RSUExampleScenario.node[109].veinsmobility co2emission ETV
39	406121 8312 267 24217 24 330 307 0.973 7.8139621935621 608.82518608919 1494.2136726482
38	414433 9140 267 24217 24 330 307 -4.094616017928 2.2555459074327 5.2144465924255 111.06323704972
37	423573 8483 256 24217 23 330 308 0 13.999889892975 3399.4622215238 42432.294727748
36	432056 8623 245 24217 22 330 309 1216.8429147247 2120.6625616178 511814.55997972 876880576.2557
35	440679 8622 245 24217 22 330 309 204.59502816491 2450.4365012295 480660.36394677 923353734.0792
vector 550 RSUExampleScenario.node[110].veinsmobility posx ETV
vector 551 RSUExampleScenario.node[110].veinsmobility posy ETV
vector 552 RSUExampleScenario.node[110].veinsmobility speed ETV
vector 553 RSUExampleScenario.node[110].veinsmobility acceleration ETV
vector 554 RSUExampleScenario.node[110].veinsmobility co2emission ETV
vector 555 RSUExampleScenario.node[111].veinsmobility posx ETV
vector 556 RSUExampleScenario.node[111].veinsmobility posy ETV
vector 557 RSUExampleScenario.node[111].veinsmobility speed ETV
vector 558 RSUExampleScenario.node[111].veinsmobility acceleration ETV
vector 559 RSUExampleScenario.node[111].veinsmobility co2emission ETV
vector 560 RSUExampleScenario.node[112].veinsmobility posx ETV
vector 561 RSUExampleScenario.node[112].veinsmobility posy ETV
vector 562 RSUExampleScenario.node[112].veinsmobility speed ETV
114	450153 7719 774 24306 69 338 270 0.973 8.9364868452805 623.66385878169 2065.5835534258
113	457872 8488 774 24306 69 338 270 -4.4970849101641 2.2334969759476 6.1208717734292 230.71542848392
112	466360 7935 763 24306 68 338 271 4.1832233416825 13.99910178012 3266.3693470693 41225.686428344
111	474295 7970 752 24306 67 338 272 1096.0275500556 1700.9972557854 360977.9001617 486215997.05364
110	482265 7965 752 24306 67 338 272 202.29054236901 2438.4689988847 419340.86887174 795246000.38775
vector 563 RSUExampleScenario.node[112].veinsmobility acceleration ETV
vector 564 RSUExampleScenario.node[112].veinsmobility co2emission ETV
vector 565 RSUExampleScenario.node[113].veinsmobility posx ETV
vector 566 RSUExampleScenario.node[113].veinsmobility posy ETV
54	490497 7954 371 24328 33 340 308 0.973 8.8976355453378 639.43992571708 1825.6276446151
53	498451 8538 371 24328 33 340 308 -3.8607612925128 2.2585789954743 6.4024932742711 156.45438398574
52	506989 7961 360 24328 32 340 309 0 13.999607604952 3404.0760943451 45843.837314143
51	514950 8685 349 24328 31 340 310 1216.3705095993 2120.7048463169 528258.14297242 931693733.11558
50	523635 8684 349 24328 31 340 310 202.90321319876 2450.3828549772 508185.90189457 997311303.14787
vector 567 RSUExampleScenario.node[113].veinsmobility speed ETV
vector 568 RSUExampleScenario.node[113].veinsmobility acceleration ETV
vector 569 RSUExampleScenario.node[113].veinsmobility co2emission ETV
vector 570 RSUExampleScenario.node[114].veinsmobility posx ETV
vector 571 RSUExampleScenario.node[114].veinsmobility posy ETV
59	532650 8105 404 24672 36 343 308 0.973 8.73746890554 624.53327328213 1661.1371683206
58	540755 8804 404 24672 36 343 308 -4.454977705764 2.3961217227788 5.6396182958308 132.04167499063
57	549559 8197 393 24672 35 343 309 0 13.998078278936 3402.8008492949 45603.760460303
56	557756 8706 382 24672 34 343 310 1216.2091447553 2120.7787246909 527534.93858888 929335085.49721
55	566462 8697 382 24672 34 343 310 204.05477689276 2450.2307157078 506239.85732944 991962517.07654
vector 572 RSUExampleScenario.node[114].veinsmobility speed ETV
vector 573 RSUExampleScenario.node[114].veinsmobility acceleration ETV
vector 574 RSUExampleScenario.node[114].veinsmobility co2emission ETV
vector 575 RSUExampleScenario.node[115].veinsmobility posx ETV
vector 576 RSUExampleScenario.node[115].veinsmobility posy ETV
vector 577 RSUExampleScenario.node[115].veinsmobility speed ETV
vector 578 RSUExampleScenario.node[115].veinsmobility acceleration ETV
vector 579 RSUExampleScenario.node[115].veinsmobility co2emission ETV
vector 580 RSUExampleScenario.node[116].veinsmobility posx ETV
vector 581 RSUExampleScenario.node[116].veinsmobility posy ETV
vector 582 RSUExampleScenario.node[116].veinsmobility speed ETV
vector 583 RSUExampleScenario.node[116].veinsmobility acceleration ETV
vector 584 RSUExampleScenario.node[116].veinsmobility co2emission ETV
vector 585 RSUExampleScenario.node[117].veinsmobility posx ETV
vector 586 RSUExampleScenario.node[117].veinsmobility posy ETV
vector 587 RSUExampleScenario.node[117].veinsmobility speed ETV
vector 588 RSUExampleScenario.node[117].veinsmobility acceleration ETV
vector 589 RSUExampleScenario.node[117].veinsmobility co2emission ETV
vector 590 RSUExampleScenario.node[118].veinsmobility posx ETV
vector 591 RSUExampleScenario.node[118].veinsmobility posy ETV
vector 592 RSUExampleScenario.node[118].veinsmobility speed ETV
vector 593 RSUExampleScenario.node[118].veinsmobility acceleration ETV
vector 594 RSUExampleScenario.node[118].veinsmobility co2emission ETV
vector 595 RSUExampleScenario.node[119].veinsmobility posx ETV
vector 596 RSUExampleScenario.node[119].veinsmobility posy ETV
vector 597 RSUExampleScenario.node[119].veinsmobility speed ETV
vector 598 RSUExampleScenario.node[119].veinsmobility acceleration ETV
vector 599 RSUExampleScenario.node[119].veinsmobility co2emission ETV
vector 600 RSUExampleScenario.node[120].veinsmobility posx ETV
vector 601 RSUExampleScenario.node[120].veinsmobility posy ETV
vector 602 RSUExampleScenario.node[120].veinsmobility speed ETV
vector 603 RSUExampleScenario.node[120].veinsmobility acceleration ETV
vector 604 RSUExampleScenario.node[120].veinsmobility co2emission ETV
vector 605 RSUExampleScenario.node[121].veinsmobility posx ETV
vector 606 RSUExampleScenario.node[121].veinsmobility posy ETV
109	577476 8593 741 31143 66 364 299 0.973 8.233166666669 631.7886919352 1806.0430720307
108	586069 9436 741 31143 66 364 299 -4.5 2.279591250075 5.666755379232 179.92533652206
107	595505 8798 730 31143 65 364 300 4.2842987557744 13.995905705239 3360.0609604285 39660.726488758
106	604303 8824 719 31143 64 364 301 1096.8925518924 1749.033417481 401441.69685797 544202020.19754
105	613127 8820 719 31143 64 364 301 203.25253461534 2439.302222562 473247.57465226 909424744.12686
vector 607 RSUExampleScenario.node[121].veinsmobility speed ETV
vector 608 RSUExampleScenario.node[121].veinsmobility acceleration ETV
vector 609 RSUExampleScenario.node[121].veinsmobility co2emission ETV
vector 610 RSUExampleScenario.node[122].veinsmobility posx ETV
vector 611 RSUExampleScenario.node[122].veinsmobility posy ETV
vector 612 RSUExampleScenario.node[122].veinsmobility speed ETV
vector 613 RSUExampleScenario.node[122].veinsmobility acceleration ETV
vector 614 RSUExampleScenario.node[122].veinsmobility co2emission ETV
vector 615 RSUExampleScenario.node[123].veinsmobility posx ETV
vector 616 RSUExampleScenario.node[123].veinsmobility posy ETV
vector 617 RSUExampleScenario.node[123].veinsmobility speed ETV
vector 618 RSUExampleScenario.node[123].veinsmobility acceleration ETV
vector 619 RSUExampleScenario.node[123].veinsmobility co2emission ETV
vector 620 RSUExampleScenario.node[124].veinsmobility posx ETV
vector 621 RSUExampleScenario.node[124].veinsmobility posy ETV
vector 622 RSUExampleScenario.node[124].veinsmobility speed ETV
vector 623 RSUExampleScenario.node[124].veinsmobility acceleration ETV
vector 624 RSUExampleScenario.node[124].veinsmobility co2emission ETV
vector 625 RSUExampleScenario.node[125].veinsmobility posx ETV
vector 626 RSUExampleScenario.node[125].veinsmobility posy ETV
vector 627 RSUExampleScenario.node[125].veinsmobility speed ETV
vector 628 RSUExampleScenario.node[125].veinsmobility acceleration ETV
vector 629 RSUExampleScenario.node[125].veinsmobility co2emission ETV
vector 630 RSUExampleScenario.node[126].veinsmobility posx ETV
vector 631 RSUExampleScenario.node[126].veinsmobility posy ETV
vector 632 RSUExampleScenario.node[126].veinsmobility speed ETV
vector 633 RSUExampleScenario.node[126].veinsmobility acceleration ETV
vector 634 RSUExampleScenario.node[126].veinsmobility co2emission ETV
vector 635 RSUExampleScenario.node[127].veinsmobility posx ETV
vector 636 RSUExampleScenario.node[127].veinsmobility posy ETV
vector 637 RSUExampleScenario.node[127].veinsmobility speed ETV
vector 638 RSUExampleScenario.node[127].veinsmobility acceleration ETV
vector 639 RSUExampleScenario.node[127].veinsmobility co2emission ETV
vector 640 RSUExampleScenario.node[128].veinsmobility posx ETV
vector 641 RSUExampleScenario.node[128].veinsmobility posy ETV
vector 642 RSUExampleScenario.node[128].veinsmobility speed ETV
vector 643 RSUExampleScenario.node[128].veinsmobility acceleration ETV
vector 644 RSUExampleScenario.node[128].veinsmobility co2emission ETV
vector 645 RSUExampleScenario.node[129].veinsmobility posx ETV
vector 646 RSUExampleScenario.node[129].veinsmobility posy ETV
vector 647 RSUExampleScenario.node[129].veinsmobility speed ETV
vector 648 RSUExampleScenario.node[129].veinsmobility acceleration ETV
vector 649 RSUExampleScenario.node[129].veinsmobility co2emission ETV
vector 650 RSUExampleScenario.node[130].veinsmobility posx ETV
vector 651 RSUExampleScenario.node[130].veinsmobility posy ETV
vector 652 RSUExampleScenario.node[130].veinsmobility speed ETV
vector 653 RSUExampleScenario.node[130].veinsmobility acceleration ETV
vector 654 RSUExampleScenario.node[130].veinsmobility co2emission ETV
vector 655 RSUExampleScenario.node[131].veinsmobility posx ETV
vector 656 RSUExampleScenario.node[131].veinsmobility posy ETV
124	625257 9143 841 31482 75 394 320 0.973 8.4121155097758 627.64926142832 1734.2182540216
123	634400 10143 841 31482 75 394 320 -3.08 2.3087668877048 7.0950007362431 139.28643311414
122	644543 9439 830 31482 74 394 321 4.0735588402093 13.99918950615 3267.2873059977 35982.156488193
121	653982 9475 818 31482 73 394 322 1096.7944853809 1701.1169984844 425121.30347652 569800382.87304
120	663457 9474 818 31482 73 394 322 200.0252389044 2438.4268767143 514782.24407059 989792627.00313
vector 657 RSUExampleScenario.node[131].veinsmobility speed ETV
vector 658 RSUExampleScenario.node[131].veinsmobility acceleration ETV
vector 659 RSUExampleScenario.node[131].veinsmobility co2emission ETV
vector 660 RSUExampleScenario.node[132].veinsmobility posx ETV
vector 661 RSUExampleScenario.node[132].veinsmobility posy ETV
vector 662 RSUExampleScenario.node[132].veinsmobility speed ETV
vector 663 RSUExampleScenario.node[132].veinsmobility acceleration ETV
vector 664 RSUExampleScenario.node[132].veinsmobility co2emission ETV
vector 665 RSUExampleScenario.node[133].veinsmobility posx ETV
vector 666 RSUExampleScenario.node[133].veinsmobility posy ETV
vector 667 RSUExampleScenario.node[133].veinsmobility speed ETV
vector 668 RSUExampleScenario.node[133].veinsmobility acceleration ETV
vector 669 RSUExampleScenario.node[133].veinsmobility co2emission ETV
vector 670 RSUExampleScenario.node[134].veinsmobility posx ETV
vector 671 RSUExampleScenario.node[134].veinsmobility posy ETV
vector 672 RSUExampleScenario.node[134].veinsmobility speed ETV
vector 673 RSUExampleScenario.node[134].veinsmobility acceleration ETV
vector 674 RSUExampleScenario.node[134].veinsmobility co2emission ETV
vector 675 RSUExampleScenario.node[135].veinsmobility posx ETV
vector 676 RSUExampleScenario.node[135].veinsmobility posy ETV
vector 677 RSUExampleScenario.node[135].veinsmobility speed ETV
vector 678 RSUExampleScenario.node[135].veinsmobility acceleration ETV
vector 679 RSUExampleScenario.node[135].veinsmobility co2emission ETV
119	674460 9800 807 38089 72 408 337 0.973 7.6729838992704 630.18950670538 1494.0421519413
118	684260 10742 807 38089 72 408 337 -3.9258567299954 2.3735113515845 6.2998525061242 130.68181859387
117	695002 9955 796 38089 71 408 338 4.0859593419879 12.488060180567 3265.1675815861 33349.934618618
116	704957 9974 785 38089 70 408 339 1095.9940492921 1701.0928027472 448407.83424615 601922405.03076
115	714931 9970 785 38089 70 408 339 201.21270378341 2438.3584376569 526821.25373384 1003429364.1514
vector 680 RSUExampleScenario.node[136].veinsmobility posx ETV
vector 681 RSUExampleScenario.node[136].veinsmobility posy ETV
154	725027 8763 5266 38100 93 409 317 0.973 8.880686804981 623.11625171217 1641.0233185013
153	733790 9352 5266 38100 93 409 317 -4.5 2.3200786734326 5.3831026442407 145.24590823857
152	743142 8722 5255 38100 92 409 318 0 13.998849253061 3399.3421246413 44087.167972648
151	751864 9442 5244 38100 91 409 319 1218.0667291498 2120.887350033 535941.33579423 931944462.78629
150	761306 9433 5244 38100 91 409 319 204.57676498999 2450.6103326534 500844.44807189 964749170.57147
vector 682 RSUExampleScenario.node[136].veinsmobility speed ETV
vector 683 RSUExampleScenario.node[136].veinsmobility acceleration ETV
vector 684 RSUExampleScenario.node[136].veinsmobility co2emission ETV
159	770944 8840 5299 38122 96 411 316 0.973 8.7639896884138 634.63374501873 1677.7852210225
158	779784 9554 5299 38122 96 411 316 -4.4488477394171 2.4991268221824 5.0561364753238 139.92326705013
157	789338 8952 5288 38122 95 411 317 0 13.99787774622 3400.6886008808 44069.169535461
156	798290 9415 5277 38122 94 411 318 1216.3793471847 2120.9616579209 533664.74440835 926928721.47421
155	807705 9423 5277 38122 94 411 318 204.08463629836 2450.6582791585 497023.73997842 956140142.43966
vector 685 RSUExampleScenario.node[137].veinsmobility posx ETV
vector 686 RSUExampleScenario.node[137].veinsmobility posy ETV
vector 687 RSUExampleScenario.node[137].veinsmobility speed ETV
169	817318 8740 5370 38144 102 413 312 0.973 8.7362375013429 615.76042742479 1606.6412948187
168	826058 9576 5370 38144 102 413 312 -2.4206691319341 2.1313882479584 5.7501839379662 98.954117648853
167	835634 8963 5359 38144 101 413 313 0 13.999884398489 3405.0080330261 43989.620202354
166	844597 9295 5343 38144 100 413 314 1217.4373103473 2120.6358488016 525336.52523362 909645363.69161
165	853892 9274 5343 38144 100 413 314 203.53166617313 2450.3398767932 490058.10584528 944003028.09847
vector 688 RSUExampleScenario.node[137].veinsmobility acceleration ETV
vector 689 RSUExampleScenario.node[137].veinsmobility co2emission ETV
vector 690 RSUExampleScenario.node[138].veinsmobility posx ETV
vector 691 RSUExampleScenario.node[138].veinsmobility posy ETV
164	863433 8884 5332 38166 99 415 317 0.973 8.4344878282212 629.32929936279 1634.2699050138
163	872317 9606 5332 38166 99 415 317 -3.0662295750041 2.4457629924943 6.6584810382318 118.45274352009
162	881923 9062 5321 38166 98 415 318 0 13.999720712805 3406.4959723093 43500.064012755
161	890985 9422 5310 38166 97 415 319 1216.4787658658 2120.6176664671 532555.84529222 920238116.08528
160	900407 9462 5310 38166 97 415 319 202.11004696519 2450.3765767238 495597.70279411 952652437.90827
vector 692 RSUExampleScenario.node[138].veinsmobility speed ETV
vector 693 RSUExampleScenario.node[138].veinsmobility acceleration ETV
vector 694 RSUExampleScenario.node[138].veinsmobility co2emission ETV
174	910074 8724 5406 38188 105 417 313 0.973 8.3854124555212 624.46363215426 1679.1836437198
173	918798 9629 5406 38188 105 417 313 -2.1400302409781 2.3141063491092 6.5640638720505 107.02561952888
172	928427 9004 5395 38188 104 417 314 0 13.999993033642 3410.7964109982 43858.180471099
171	937431 9357 5381 38188 103 417 315 1217.256367526 2120.6462286124 526092.81041038 909644982.98953
170	946788 9339 5381 38188 103 417 315 200.18689647748 2450.3188460005 488010.08039801 937522431.05116
vector 695 RSUExampleScenario.node[139].veinsmobility posx ETV
vector 696 RSUExampleScenario.node[139].veinsmobility posy ETV
179	956253 8756 5439 38199 108 418 311 0.973 8.0971504934957 617.49221169617 1600.3779499883
178	965009 9627 5439 38199 108 418 311 -4.3012871694309 2.0977959790057 5.7194737179863 107.90422391876
177	974636 9000 5428 38199 107 418 312 0 13.997942404777 3404.0098383863 43777.967374367
176	983636 9256 5417 38199 106 418 313 1216.5232269047 2120.5840532901 522357.96671507 902564916.15554
175	992892 9291 5417 38199 106 418 313 204.05711559032 2450.4480001269 484824.98321815 931130765.46394
vector 697 RSUExampleScenario.node[139].veinsmobility speed ETV
vector 698 RSUExampleScenario.node[139].veinsmobility acceleration ETV
vector 699 RSUExampleScenario.node[139].veinsmobility co2emission ETV
184	1002388 8727 5472 38221 111 420 310 0.973 8.977512736819 616.85940398436 1623.6364076113
183	1011115 9623 5472 38221 111 420 310 -4.4314288262536 2.1652497974201 6.3877031864383 111.35983053164
182	1020738 9010 5461 38221 110 420 311 0 13.998663427769 3404.6256786644 43736.482200985
181	1029748 9258 5450 38221 109 420 312 1217.1812986527 2120.719975749 520221.17986494 898089711.30086
180	1039006 9264 5450 38221 109 420 312 203.17672441097 2450.5502019766 482089.79219667 925486194.23858
vector 700 RSUExampleScenario.node[140].veinsmobility posx ETV
vector 701 RSUExampleScenario.node[140].veinsmobility posy ETV
vector 702 RSUExampleScenario.node[140].veinsmobility speed ETV
189	1048460 8767 5505 38243 114 422 309 0.973 9.219531205248 612.69501171173 1597.1064972813
188	1057227 9641 5505 38243 114 422 309 -3.0445319186994 2.2226465190272 6.7031598621998 109.44440103105
187	1066868 9027 5494 38243 113 422 310 0 13.999776709119 3408.1302213704 43501.147102112
186	1075895 9247 5483 38243 112 422 311 1216.5486705089 2120.7755669253 517306.91298671 890710258.30019
185	1085142 9227 5483 38243 112 422 311 201.10136018356 2450.2238012858 479483.40846564 920668530.70453
vector 703 RSUExampleScenario.node[140].veinsmobility acceleration ETV
vector 704 RSUExampleScenario.node[140].veinsmobility co2emission ETV
194	1094510 8713 5538 38254 117 423 307 0.973 8.4078857082743 608.32648312475 1569.786373273
193	1103223 9632 5538 38254 117 423 307 -3.5982370337945 2.1608864086005 5.3063235182711 107.7779775315
192	1112855 9007 5527 38254 116 423 308 0 13.999480782887 3399.5794573312 43437.203006944
191	1121862 9161 5516 38254 115 423 309 1217.1147520915 2120.928104653 513919.12361753 884856134.83769
190	1131023 9168 5516 38254 115 423 309 204.28386691026 2450.5885324416 476339.31417363 914226780.70962
vector 705 RSUExampleScenario.node[141].veinsmobility posx ETV
vector 706 RSUExampleScenario.node[141].veinsmobility posy ETV
vector 707 RSUExampleScenario.node[141].veinsmobility speed ETV
199	1140381 8732 5571 38277 120 425 306 0.973 9.0049482013392 602.35485818614 1518.5853120364
198	1149113 9633 5571 38277 120 425 306 -2.9802988748053 2.2077546287444 5.996259110745 96.082629287928
197	1158746 9006 5560 38277 119 425 307 0 13.999701923954 3404.9005313773 43287.544902917
196	1167752 9139 5549 38277 118 425 308 1216.5620306125 2120.699168073 510926.15827023 877172784.37332
195	1176891 9144 5549 38277 118 425 308 203.48816060286 2450.2082759765 473713.58733766 909327147.6782
vector 708 RSUExampleScenario.node[141].veinsmobility acceleration ETV
vector 709 RSUExampleScenario.node[141].veinsmobility co2emission ETV
vector 710 RSUExampleScenario.node[142].veinsmobility posx ETV
vector 711 RSUExampleScenario.node[142].veinsmobility posy ETV
129	1186302 9657 879 38304 78 427 350 0.973 8.6102118406059 650.96684128777 1804.0715240063
128	1195959 10859 879 38304 78 427 350 -4.4461247515343 2.2984138324298 6.610795669508 156.97221996057
127	1206818 10147 868 38304 77 427 351 0 13.99911087913 3263.7225638593 34279.462968443
126	1216965 10394 857 38304 76 427 352 1096.1436749836 1701.0493631419 465789.04644327 624937677.86382
125	1227359 10371 857 38304 76 427 352 202.06130820152 2438.4371604475 539563.20362493 1013482049.4826
vector 712 RSUExampleScenario.node[142].veinsmobility speed ETV
134	1237794 9641 914 38315 81 428 348 0.973 8.6557442187382 643.89906938708 1748.6969239124
133	1247435 11027 914 38315 81 428 348 -2.762795443209 2.1469653188856 5.2967563298135 130.32772626642
132	1258462 10314 903 38315 80 428 349 0 13.994274740394 3255.0070192055 34254.916697476
131	1268776 10340 892 38315 79 428 350 1096.3876034766 1701.0873921541 462762.86004906 620267151.11493
130	1279116 10321 892 38315 79 428 350 204.58868798555 2438.4463665205 535947.86929384 1005355876.061
vector 713 RSUExampleScenario.node[142].veinsmobility acceleration ETV
vector 714 RSUExampleScenario.node[142].veinsmobility co2emission ETV
vector 715 RSUExampleScenario.node[143].veinsmobility posx ETV
vector 716 RSUExampleScenario.node[143].veinsmobility posy ETV
139	1289704 9620 947 38339 84 430 347 0.973 7.9998241147744 649.95204800335 1823.5896784809
138	1299324 11005 947 38339 84 430 347 -2.3598040740222 2.266476498174 5.9478762067485 138.45968224136
137	1310329 10319 936 38339 83 430 348 3.9288615274745e-05 13.998699504088 3260.910042654 34410.45138979
136	1320648 10321 925 38339 82 430 349 1096.911403059 1701.0167615805 461028.26227599 617324891.00387
135	1330969 10317 925 38339 82 430 349 203.79611316242 2438.4258844999 532408.25242405 996979203.26952
vector 717 RSUExampleScenario.node[143].veinsmobility speed ETV
vector 718 RSUExampleScenario.node[143].veinsmobility acceleration ETV
vector 719 RSUExampleScenario.node[143].veinsmobility co2emission ETV
149	1341491 9392 4509 38361 90 432 343 0.973 8.7036971944128 644.80216434364 1861.8280787745
148	1350883 10898 4509 38361 90 432 343 -4.4094037924742 2.1844902744796 6.4883221467426 144.65521765627
147	1361781 10196 4498 38361 89 432 344 0.0025245117058103 13.999199340187 3264.5696022352 34862.671758362
146	1371977 10209 2799 38361 88 432 345 1096.357897765 1701.0877412651 455212.27992586 608804591.26799
145	1382186 10209 2799 38361 88 432 345 202.90152302838 2438.4802676202 524365.02033778 979719338.11519
vector 720 RSUExampleScenario.node[144].veinsmobility posx ETV
vector 721 RSUExampleScenario.node[144].veinsmobility posy ETV
vector 722 RSUExampleScenario.node[144].veinsmobility speed ETV
144	1392585 9565 2788 38384 87 434 348 0.973 8.7523301626931 661.74205825836 1935.0835507174
143	1402150 10920 2788 38384 87 434 348 -3.6571631038796 2.2331155018904 6.7738586800369 159.13215608803
142	1413070 10353 1084 38384 86 434 349 0.0003995264012868 13.996607379271 3265.721115613 34258.577377876
141	1423423 10355 1073 38384 85 434 350 1096.140408881 1701.1196985804 462236.52960092 618717771.61968
140	1433778 10359 1073 38384 85 434 350 200.19532104023 2438.3656368083 530140.77162868 989475871.11915
vector 723 RSUExampleScenario.node[144].veinsmobility acceleration ETV
vector 724 RSUExampleScenario.node[144].veinsmobility co2emission ETV
64	1444278 10541 437 38395 39 435 397 0.973 9.1363177087509 754.4620246463 2044.2457011274
63	1454819 12055 437 38395 39 435 397 -4.5 2.1838309390739 5.67031449265 154.18960836018
62	1466874 11274 426 38395 38 435 398 0.0057428846057481 13.999378900521 4026.5321074986 45229.44998341
61	1478148 11271 415 38395 37 435 399 1096.9383235993 2080.8307444649 557915.15886348 804674901.92847
60	1489419 11285 415 38395 37 435 399 204.05837421725 2453.4950424372 654172.79457154 1295820856.1296
vector 725 RSUExampleScenario.node[145].veinsmobility posx ETV
vector 726 RSUExampleScenario.node[145].veinsmobility posy ETV
vector 727 RSUExampleScenario.node[145].veinsmobility speed ETV
69	1500894 10393 470 38417 42 437 396 0.973 8.743764329598 755.02136117025 2102.9751917422
68	1511287 12038 470 38417 42 437 396 -2.4100422130734 2.2222954624472 6.3031635483391 139.85843612233
67	1523325 11254 459 38417 41 437 397 0.019105592146912 13.999754184654 4028.9749924702 45327.293650848
66	1534579 11245 448 38417 40 437 398 1096.1441837465 2081.6430948153 556458.57505644 802510823.35226
65	1545824 11252 448 38417 40 437 398 203.16935508559 2453.9163145834 650907.5574496 1288135162.5353
vector 728 RSUExampleScenario.node[145].veinsmobility acceleration ETV
vector 729 RSUExampleScenario.node[145].veinsmobility co2emission ETV
vector 730 RSUExampleScenario.node[146].veinsmobility posx ETV
vector 731 RSUExampleScenario.node[146].veinsmobility posy ETV
74	1557343 10399 503 38439 45 439 395 0.973 8.7718288962126 760.09638577052 2174.4787962048
73	1567742 12027 503 38439 45 439 395 -3.8456400924426 2.2274188586369 6.9782037702759 152.20212169514
72	1579769 11229 492 38439 44 439 396 0.03503732900574 13.999124200887 4032.120657848 45456.397729598
71	1590998 11230 481 38439 43 439 397 1096.2078514202 2080.8228554986 554778.94458256 799741009.33862
70	1602228 11229 481 38439 43 439 397 201.05927738419 2453.4919922781 647624.99595698 1280328447.6979
vector 732 RSUExampleScenario.node[146].veinsmobility speed ETV
79	1613521 10352 536 38450 48 440 393 0.973 8.1796327947509 752.20224030453 2115.4912891255
78	1623873 11995 536 38450 48 440 393 -4.4635479538827 2.1529971322371 5.060042185987 155.14313719601
77	1635868 11164 525 38450 47 440 394 0.058028324110405 13.997957009352 4024.4890359596 45451.045289987
76	1647032 11185 514 38450 46 440 395 1096.7570279501 2080.739567169 551929.26024844 795680084.43127
75	1658217 11183 514 38450 46 440 395 204.33961087675 2453.4992518995 644327.94579658 1272967615.7463
vector 733 RSUExampleScenario.node[146].veinsmobility acceleration ETV
vector 734 RSUExampleScenario.node[146].veinsmobility co2emission ETV
vector 735 RSUExampleScenario.node[147].veinsmobility posx ETV
vector 736 RSUExampleScenario.node[147].veinsmobility posy ETV
84	1669667 10359 574 38472 51 442 392 0.973 8.7472268623497 755.10650025064 2140.6192576605
83	1680026 11941 574 38472 51 442 392 -4.4674361181588 2.2810334024508 6.1502440920767 160.83886901037
82	1691967 11142 558 38472 50 442 393 0.099749746891788 13.999902544175 4026.0438436974 45520.859573715
81	1703109 11160 547 38472 49 442 394 1096.2512439294 2079.4686343716 550506.90180036 793658161.28757
80	1714269 11161 547 38472 49 442 394 203.50654286763 2453.5923029827 641165.18668882 1265582417.6381
vector 737 RSUExampleScenario.node[147].veinsmobility speed ETV
vector 738 RSUExampleScenario.node[147].veinsmobility acceleration ETV
vector 739 RSUExampleScenario.node[147].veinsmobility co2emission ETV
204	1725635 8864 5604 38494 123 444 322 0.973 7.7327494698697 641.32556840243 1751.7521122655
203	1734499 9498 5604 38494 123 444 322 -4.402845303368 2.4787871487654 6.960037476274 152.15844662597
202	1743997 8903 5593 38494 122 444 323 0 13.999379917253 3407.7059307778 44199.787964247
201	1752900 9621 5582 38494 121 444 324 1216.6346412832 2120.8698071223 548001.508881 959352865.81968
200	1762521 9638 5582 38494 121 444 324 201.87229328824 2450.4504941582 513298.6939722 1000065355.3874
vector 740 RSUExampleScenario.node[148].veinsmobility posx ETV
vector 741 RSUExampleScenario.node[148].veinsmobility posy ETV
209	1772285 8823 5643 38505 126 445 320 0.973 8.4188907415279 629.92584612483 1701.7870062227
208	1781108 9679 5643 38505 126 445 320 -2.8712594212932 2.3416349298297 5.2322169179781 126.9154512619
207	1790787 9068 5627 38505 125 445 321 0 13.999710486645 3399.7627464323 44199.636541173
206	1799855 9500 5616 38505 124 445 322 1216.1889993763 2120.8751053754 544878.07720812 954447693.71273
205	1809355 9575 5616 38505 124 445 322 204.57666717563 2450.4653459288 510444.77084372 994353030.39838
vector 742 RSUExampleScenario.node[148].veinsmobility speed ETV
vector 743 RSUExampleScenario.node[148].veinsmobility acceleration ETV
vector 744 RSUExampleScenario.node[148].veinsmobility co2emission ETV
94	1819135 10793 642 38527 57 447 391 0.973 8.3363783621892 736.2932974749 1796.5778777617
93	1829928 11995 642 38527 57 447 391 -2.3514702822223 2.3297191780875 5.0905731936081 102.48048690586
92	1841923 11131 631 38527 56 447 392 4.0700236807532 13.998863429434 4026.265457216 44538.617185333
91	1853054 11159 620 38527 55 447 393 1096.702607655 2082.9424783997 555399.38646182 812045200.62141
90	1864213 11149 620 38527 55 447 393 204.10040513123 2453.8758040458 685279.09107717 1401943306.9448
vector 745 RSUExampleScenario.node[149].veinsmobility posx ETV
vector 746 RSUExampleScenario.node[149].veinsmobility posy ETV
vector 747 RSUExampleScenario.node[149].veinsmobility speed ETV
99	1875552 10653 675 38549 60 449 390 0.973 8.3204552480567 735.2690035868 1843.9564206486
98	1886205 11976 675 38549 60 449 390 -1.931481208528 2.222100084126 5.3619976539412 102.79747681678
97	1898181 11114 664 38549 59 449 391 3.8447639940612 13.996419387246 4026.4811980025 44569.049484663
96	1909295 11122 653 38549 58 449 392 1096.1522474624 2081.4706920525 553522.52301119 808607088.59572
95	1920417 11131 653 38549 58 449 392 204.3260210692 2453.6170095031 682688.19962011 1395085661.6375
vector 748 RSUExampleScenario.node[149].veinsmobility acceleration ETV
vector 749 RSUExampleScenario.node[149].veinsmobility co2emission ETV
vector 750 RSUExampleScenario.node[150].veinsmobility posx ETV
vector 751 RSUExampleScenario.node[150].veinsmobility posy ETV
vector 752 RSUExampleScenario.node[150].veinsmobility speed ETV
vector 753 RSUExampleScenario.node[150].veinsmobility acceleration ETV
vector 754 RSUExampleScenario.node[150].veinsmobility co2emission ETV
vector 755 RSUExampleScenario.node[151].veinsmobility posx ETV
vector 756 RSUExampleScenario.node[151].veinsmobility posy ETV
vector 757 RSUExampleScenario.node[151].veinsmobility speed ETV
vector 758 RSUExampleScenario.node[151].veinsmobility acceleration ETV
vector 759 RSUExampleScenario.node[151].veinsmobility co2emission ETV
vector 760 RSUExampleScenario.node[152].veinsmobility posx ETV
vector 761 RSUExampleScenario.node[152].veinsmobility posy ETV
vector 762 RSUExampleScenario.node[152].veinsmobility speed ETV
vector 763 RSUExampleScenario.node[152].veinsmobility acceleration ETV
vector 764 RSUExampleScenario.node[152].veinsmobility co2emission ETV
vector 765 RSUExampleScenario.node[153].veinsmobility posx ETV
vector 766 RSUExampleScenario.node[153].veinsmobility posy ETV
vector 767 RSUExampleScenario.node[153].veinsmobility speed ETV
vector 768 RSUExampleScenario.node[153].veinsmobility acceleration ETV
vector 769 RSUExampleScenario.node[153].veinsmobility co2emission ETV
vector 770 RSUExampleScenario.node[154].veinsmobility posx ETV
vector 771 RSUExampleScenario.node[154].veinsmobility posy ETV
vector 772 RSUExampleScenario.node[154].veinsmobility speed ETV
vector 773 RSUExampleScenario.node[154].veinsmobility acceleration ETV
vector 774 RSUExampleScenario.node[154].veinsmobility co2emission ETV
89	1933344 11572 609 44993 54 465 412 0.973 6.7330751485819 750.54409739378 1628.1009425936
88	1944916 12720 609 44993 54 465 412 -3.9187249225726 2.2453032695805 6.1006223737617 105.24638093844
87	1957636 11731 596 44993 53 465 413 3.8698786158062 12.071849783392 4029.7889928592 41432.84952443
86	1969367 11739 585 44993 52 465 414 1096.034778418 2079.9700395027 583971.86019474 851197077.47587
85	1981106 11746 585 44993 52 465 414 202.26399916294 2453.4980241051 700341.95484626 1418071858.5785
vector 775 RSUExampleScenario.node[155].veinsmobility posx ETV
vector 776 RSUExampleScenario.node[155].veinsmobility posy ETV
vector 777 RSUExampleScenario.node[155].veinsmobility speed ETV
264	1993042 8829 6017 45015 159 467 309 0.973 8.4244286098046 629.84904861234 1856.0567285404
263	2001871 9910 6017 45015 159 467 309 -3.7581532215821 2.3045563181513 7.0659214225144 163.30217632683
262	2011781 9236 6006 45015 158 467 310 3.894362128734 13.996058789804 3266.690809343 36000.992217172
261	2021017 9279 5995 45015 157 467 311 1096.5462789536 1700.9320311295 411233.29449114 551525808.56745
260	2030296 9275 5995 45015 157 467 311 200.01715387462 2438.4017355065 461065.51589916 856264585.70239
vector 778 RSUExampleScenario.node[155].veinsmobility acceleration ETV
vector 779 RSUExampleScenario.node[155].veinsmobility co2emission ETV
259	2039712 8836 5984 45026 156 468 313 0.973 8.5538133390101 628.80358689455 1878.5315033061
258	2048548 10012 5984 45026 156 468 313 -3.0348864612541 2.2922347384598 5.4274349781752 142.20503251398
257	2058560 9361 5973 45026 155 468 314 3.9558952104144 13.998917866887 3357.1624276675 37505.60417598
256	2067921 9394 5962 45026 154 468 315 1096.5412810193 1751.0848434577 419013.150472 566229088.68752
255	2077315 9394 5962 45026 154 468 315 204.30428053543 2439.1101635165 472248.5535089 884201511.88678
vector 780 RSUExampleScenario.node[156].veinsmobility posx ETV
vector 781 RSUExampleScenario.node[156].veinsmobility posy ETV
vector 782 RSUExampleScenario.node[156].veinsmobility speed ETV
269	2086899 8947 6050 45048 162 470 309 0.973 8.5747748485344 627.95559914552 1767.3689758926
268	2095846 9894 6050 45048 162 470 309 -4.5 2.2696210699016 5.4246124666577 202.65829798048
267	2105740 9231 6039 45048 161 470 310 0 13.992080832671 3258.7815643214 36447.423829401
266	2114971 9264 6028 45048 160 470 311 1096.2918181168 1701.1241617296 414073.1884267 559762850.42141
265	2124235 9275 6028 45048 160 470 311 203.79851150757 2438.3340003188 473176.66553524 899040914.1886
vector 783 RSUExampleScenario.node[156].veinsmobility acceleration ETV
vector 784 RSUExampleScenario.node[156].veinsmobility co2emission ETV
vector 785 RSUExampleScenario.node[157].veinsmobility posx ETV
vector 786 RSUExampleScenario.node[157].veinsmobility posy ETV
274	2133777 8877 6084 45070 165 472 308 0.973 8.1108754014903 630.26639197796 1825.7855882383
273	2142654 9821 6084 45070 165 472 308 -3.1187103968321 2.2139733306109 6.7530401940941 161.31724636357
272	2152475 9219 6073 45070 164 472 309 3.3374558092654 13.997136257258 3264.7104491796 36544.909945986
271	2161694 9239 6061 45070 163 472 310 1096.0656663412 1701.073041548 412259.77354202 556498023.60718
270	2170933 9248 6061 45070 163 472 310 202.86261958128 2438.378250786 470047.23039569 891269384.59718
vector 787 RSUExampleScenario.node[157].veinsmobility speed ETV
vector 788 RSUExampleScenario.node[157].veinsmobility acceleration ETV
vector 789 RSUExampleScenario.node[157].veinsmobility co2emission ETV
279	2180386 8716 6117 45092 168 474 307 0.973 8.8554239358318 627.70101379636 1911.7236986483
278	2189102 9793 6117 45092 168 474 307 -2.6022881748898 2.1192392777093 6.9690877208888 150.14390184785
277	2198895 9196 6106 45092 167 474 308 3.9559695225127 13.998363435396 3267.5336731368 36739.458244991
276	2208091 9225 6095 45092 166 474 309 1096.5275476836 1701.1188451191 410539.16351628 553498067.15932
275	2217316 9216 6095 45092 166 474 309 200.25012070034 2438.4131143042 467008.19889739 883771055.13022
vector 790 RSUExampleScenario.node[158].veinsmobility posx ETV
vector 791 RSUExampleScenario.node[158].veinsmobility posy ETV
104	2226658 11086 708 45103 63 475 413 0.973 9.090298685626 800.60565172366 2409.1248777651
103	2237744 12250 708 45103 63 475 413 -4.5 2.3937089216593 5.6571856631771 222.98346090596
102	2249994 11525 697 45103 62 475 414 0 13.994744901732 4025.5523038981 46667.554370414
101	2261519 12226 686 45103 61 475 415 1096.4792688936 2081.4924704758 611501.31486265 934218068.29468
100	2273745 12224 686 45103 61 475 415 204.05038168188 2453.7610751657 728090.20457032 1523196103.3366
vector 792 RSUExampleScenario.node[158].veinsmobility speed ETV
vector 793 RSUExampleScenario.node[158].veinsmobility acceleration ETV
vector 794 RSUExampleScenario.node[158].veinsmobility co2emission ETV
vector 795 RSUExampleScenario.node[159].veinsmobility posx ETV
vector 796 RSUExampleScenario.node[159].veinsmobility posy ETV
vector 797 RSUExampleScenario.node[159].veinsmobility speed ETV
vector 798 RSUExampleScenario.node[159].veinsmobility acceleration ETV
vector 799 RSUExampleScenario.node[159].veinsmobility co2emission ETV
vector 800 RSUExampleScenario.node[160].veinsmobility posx ETV
vector 801 RSUExampleScenario.node[160].veinsmobility posy ETV
vector 802 RSUExampleScenario.node[160].veinsmobility speed ETV
vector 803 RSUExampleScenario.node[160].veinsmobility acceleration ETV
vector 804 RSUExampleScenario.node[160].veinsmobility co2emission ETV
vector 805 RSUExampleScenario.node[161].veinsmobility posx ETV
vector 806 RSUExampleScenario.node[161].veinsmobility posy ETV
vector 807 RSUExampleScenario.node[161].veinsmobility speed ETV
vector 808 RSUExampleScenario.node[161].veinsmobility acceleration ETV
vector 809 RSUExampleScenario.node[161].veinsmobility co2emission ETV
vector 810 RSUExampleScenario.node[162].veinsmobility posx ETV
vector 811 RSUExampleScenario.node[162].veinsmobility posy ETV
vector 812 RSUExampleScenario.node[162].veinsmobility speed ETV
vector 813 RSUExampleScenario.node[162].veinsmobility acceleration ETV
vector 814 RSUExampleScenario.node[162].veinsmobility co2emission ETV
vector 815 RSUExampleScenario.node[163].veinsmobility posx ETV
vector 816 RSUExampleScenario.node[163].veinsmobility posy ETV
vector 817 RSUExampleScenario.node[163].veinsmobility speed ETV
vector 818 RSUExampleScenario.node[163].veinsmobility acceleration ETV
vector 819 RSUExampleScenario.node[163].veinsmobility co2emission ETV
vector 820 RSUExampleScenario.node[164].veinsmobility posx ETV
vector 821 RSUExampleScenario.node[164].veinsmobility posy ETV
vector 822 RSUExampleScenario.node[164].veinsmobility speed ETV
vector 823 RSUExampleScenario.node[164].veinsmobility acceleration ETV
vector 824 RSUExampleScenario.node[164].veinsmobility co2emission ETV
vector 825 RSUExampleScenario.node[165].veinsmobility posx ETV
vector 826 RSUExampleScenario.node[165].veinsmobility posy ETV
vector 827 RSUExampleScenario.node[165].veinsmobility speed ETV
vector 828 RSUExampleScenario.node[165].veinsmobility acceleration ETV
[...]
473	4919929 10471 21964 60437 285 625 341 -4.4773560688567 2.3262950366735 5.3446624732382 178.41777159008
472	4930400 9865 21953 60437 284 625 342 0 13.997512535332 3258.4943892927 38749.26161717
471	4940265 10229 17474 60437 283 625 343 1096.5309820585 1701.081002092 457370.71074217 617516479.824
470	4950494 10246 17474 60437 283 625 343 204.31800135295 2438.3901769 570855.44900085 1132594159.3189
534	4960740 8697 24111 60802 321 627 307 0.973 8.6091249776655 647.98751601434 1972.0857358611
533	4969437 9793 24111 60802 321 627 307 -3.1678635026153 2.2012821769924 5.7248546546432 171.60275519288
532	4979230 9223 24100 60802 320 627 308 0.0014319114243673 13.998325104597 3358.1134794775 40389.081653604
531	4988453 9243 24089 60802 319 627 309 1096.5081192954 1749.1494734017 412546.07196462 559400050.17423
530	4997696 9232 24089 60802 319 627 309 203.80314137845 2439.3104701909 493466.58132001 956557407.66589
539	5006928 8603 24144 63522 324 629 306 0.973 8.7488402206539 649.33187217187 2044.7452971549
538	5015531 9786 24144 63522 324 629 306 -3.8783646682578 2.329380237842 5.9576636852572 171.00809893402
537	5025317 9197 24133 63522 323 629 307 0.011760273674346 13.998595100853 3362.3289718974 40611.378105093
536	5034514 9212 24122 63522 322 629 308 1096.0343790688 1745.0363473129 411148.05573655 557423563.25632
535	5043726 9212 24122 63522 322 629 308 203.2112786005 2439.0032972699 490512.43707023 949329354.70611
544	5052938 8435 24182 63544 327 631 305 0.973 8.8004392618903 650.04196279783 2115.2787675745
543	5061373 9641 24182 63544 327 631 305 -4.4773146414236 2.3864230286214 6.3218563708494 226.11904239364
542	5071014 9076 24171 63544 326 631 306 0 13.997770281348 3264.9803288613 39340.74138462
541	5080090 9172 24155 63544 325 631 307 1096.3540752586 1701.1241617361 409638.87575865 555090265.96653
540	5089262 9178 24155 63544 325 631 307 202.17303437577 2438.299841473 487601.84545145 942195055.1067
549	5098440 8443 24217 63566 330 633 304 0.973 8.8726789173348 649.66795050984 2066.216801796
548	5106883 9682 24217 63566 330 633 304 -3.0927958481992 2.324153567052 6.6125605197077 200.01947738663
547	5116565 9111 24206 63566 329 633 305 0.099005696485683 13.998958647063 3267.383182774 39010.59539157
546	5125676 9143 24193 63566 328 633 306 1096.9123963611 1701.1038359338 407956.83345667 552196557.09344
545	5134819 9147 24193 63566 328 633 306 200.46359595121 2438.4620307999 484848.24486076 935531183.52237
504	5143966 9281 23909 63611 303 637 335 0.973 8.451766743912 672.09865125781 1867.7449180444
503	5153247 9919 23909 63611 303 637 335 -4.4268900380952 2.2993813382066 6.5421682967704 183.70004280499
502	5163166 9314 23898 63611 302 637 336 0 13.99924011779 3408.2016870875 45788.885422137
501	5172480 10085 23887 63611 301 637 337 1216.4432030441 2120.6331380075 575434.56392097 1012268028.6037
500	5182565 10069 23887 63611 301 637 337 201.16034243791 2450.1716384571 586042.04518254 1217932626.5663
509	5192634 9422 23945 63655 306 641 336 0.973 8.2765173730046 665.74456735819 1788.9869093107
508	5202056 10206 23945 63655 306 641 336 -4.4907550461663 2.1892449913709 6.512133311975 155.46467358652
507	5212262 9594 23934 63655 305 641 337 0 13.999702955941 3406.9039985818 45173.872065861
506	5221856 10111 23923 63655 304 641 338 1216.5166864721 2120.7954912651 575625.59904872 1009903959.0737
505	5231967 10110 23923 63655 304 641 338 202.87883295887 2450.3797335784 584106.31489676 1211075027.646
514	5242077 9362 23978 63677 309 643 335 0.973 8.8134257699164 662.72876881694 1800.2929751453
513	5251439 10248 23978 63677 309 643 335 -3.0898236421931 2.1062390033482 6.0250407631543 136.84604962545
512	5261687 9641 23967 63677 308 643 336 0 13.999648099428 3407.7194562081 45231.767051486
511	5271328 10074 23956 63677 307 643 337 1217.0017012181 2120.9516795678 573686.98095061 1005953015.7557
510	5281402 10082 23956 63677 307 643 337 202.98021791852 2450.2700126369 581357.5479553 1204480968.0869
519	5291484 9467 24011 63722 312 647 336 0.973 9.0956709323354 663.21177102969 1728.5868349451
518	5300951 10301 24011 63722 312 647 336 -4.4083260092424 2.3022784191952 6.6745577139012 145.0377280368
517	5311252 9708 24000 63722 311 647 337 0 13.999150846216 3406.4167329127 44469.307621125
516	5320960 10104 23989 63722 310 647 338 1218.4334069556 2120.6471878784 573344.58997164 1001783676.76
515	5331064 10112 23989 63722 310 647 338 201.98880018597 2450.3797235698 578968.57963338 1196180424.9087
524	5341176 9378 24045 63744 315 649 335 0.973 7.9867991311385 660.66536010895 1770.348287148
523	5350554 10308 24045 63744 315 649 335 -3.1854093724796 2.2042037832807 6.7941910282404 132.28466126663
522	5360862 9677 24034 63744 314 649 336 0 13.999973327641 3409.1077848793 44561.647664828
521	5370539 10081 24022 63744 313 649 337 1217.8532247813 2120.803438412 571439.20153944 997982454.56613
520	5380620 10084 24022 63744 313 649 337 201.1596460758 2450.42658025 576158.38635037 1189448237.8773
529	5390704 9311 24078 63755 318 650 333 0.973 8.0196900770701 657.32613259006 1734.2094130377
528	5400015 10232 24078 63755 318 650 333 -3.08 2.1732219704357 5.2536105467708 126.62564846938
527	5410247 9650 24067 63755 317 650 334 0 13.999669321915 3400.6732300891 44441.099152959
526	5419897 10013 24056 63755 316 650 335 1216.591251432 2120.9591860352 567854.81446806 991270944.83189
525	5429910 9979 24056 63755 316 650 335 204.60262095206 2450.4549005762 572922.00702068 1181936658.8796
584	5439889 8566 30997 63782 351 652 302 0.973 8.9911465964768 625.01825474478 1714.0596211308
583	5448455 9398 30997 63782 351 652 302 -4.4818785010657 2.2014226608747 5.6972967651966 134.78833410996
582	5457853 8812 30981 63782 350 652 303 0 13.999811031166 3402.1528151556 44659.461910459
581	5466665 9090 30970 63782 349 652 304 1216.1283993172 2120.6619596398 506870.08413986 871245017.38601
580	5475755 9075 30970 63782 349 652 304 204.03619242215 2450.6404401079 496498.45122454 994820184.58843
589	5484830 8487 31032 63806 354 654 301 0.973 8.4747059805276 617.29472351062 1645.7042516687
588	5493317 9397 31032 63806 354 654 301 -4.5 2.0848847101023 5.9489080477192 120.27671913241
587	5502714 8828 31019 63806 353 654 302 0 13.998499614384 3404.7907684736 44585.731125
586	5511542 9057 31008 63806 352 654 303 1216.7247282555 2120.8193358444 504706.36694919 866606711.59568
585	5520599 9062 31008 63806 352 654 303 203.52698446065 2450.4985109138 493539.45647843 987411580.80924
594	5529661 8472 31065 63828 357 656 300 0.973 8.3358333637847 620.53914994873 1711.2413741534
593	5538133 9433 31065 63828 357 656 300 -4.4162042877686 2.3749770195805 6.3247439653629 128.83435774339
592	5547566 8831 31054 63828 356 656 301 0 13.998676893541 3405.4666163172 44507.492601078
591	5556397 9034 31043 63828 355 656 302 1218.3132232297 2120.9267385788 502490.52990803 861821051.70134
590	5565431 9033 31043 63828 355 656 302 202.96703391057 2450.5400629876 490225.15865859 979096152.08255
599	5574464 8430 31098 63850 360 658 299 0.973 8.5676361994976 621.08552902376 1718.6232875835
598	5582894 9443 31098 63850 360 658 299 -4.4449250577415 2.1145624256297 7.2945618314529 127.66822517595
597	5592337 8835 31087 63850 359 658 300 0 13.997241998399 3409.3524001102 44499.207934115
596	5601172 8993 31076 63850 358 658 301 1217.6554625006 2120.6862695049 500418.47928581 857537627.48165
595	5610165 8995 31076 63850 358 658 301 200.08469448064 2450.451750305 487355.85039564 971919528.78336
339	5619160 12159 13000 63861 204 659 456 0.973 8.2960052415856 895.15868357449 2730.0427023077
338	5631319 12980 13000 63861 204 659 456 -4.5 2.3912364507513 5.157188103877 376.0652302
337	5644299 12299 12987 63861 203 659 457 0 13.999923170172 3793.0663112213 48447.40136824
336	5656598 13674 12976 63861 202 659 458 1120.9415716669 1908.1923632398 684547.21117073 1043682136.5903
335	5670272 13676 12976 63861 202 659 458 204.34062752116 2414.8975696873 805132.05066658 1621715250.5265
554	5683948 9228 24250 63961 333 668 336 0.973 8.8085110774429 702.2286954693 2164.1579675585
553	5693176 9914 24250 63961 333 668 336 -4.5 2.2264806838576 6.7221565703257 274.90610060564
552	5703090 9375 24239 63961 332 668 337 0 13.999025339507 3268.0902693802 40729.703717059
551	5712465 10106 24228 63961 331 668 338 1096.0333543252 1700.9983267654 454174.78655071 618170805.34671
550	5722571 10102 24228 63961 331 668 338 200.20180225198 2438.4227294193 571684.01941691 1147372564.4781
559	5732673 9218 24284 63983 336 670 335 0.973 8.8209558689563 692.62544059232 2133.2077203816
558	5741891 10124 24284 63983 336 670 335 -4.4773908989114 2.3852622066205 5.1974405722855 236.33921350755
557	5752015 9552 24273 63983 335 670 336 0 13.999921708168 3257.6641845462 40359.527686775
556	5761567 10064 24262 63983 334 670 337 1096.1918457076 1701.0356847914 452277.74854219 614727546.57012
555	5771631 10076 24262 63983 334 670 337 204.61796994787 2438.3721701393 570313.9971025 1143330792.1227
564	5781707 9395 24317 64065 339 677 339 0.973 8.6148691632563 684.70962793072 2029.2293219028
563	5791102 10326 24317 64065 339 677 339 -4.5 2.1676904769568 6.4490321461943 221.56123631242
562	5801428 9706 24306 64065 338 677 340 0 13.998946692904 3263.7322864301 39660.73483317
561	5811134 10193 24295 64065 337 677 341 1096.2340932637 1701.0394705646 457034.35883284 620248452.26971
560	5821327 10188 24295 64065 337 677 341 202.18416807649 2438.4315965404 574188.52168813 1148900232.7345
569	5831515 9325 24350 64089 342 679 338 0.973 8.4923816907415 685.403592445 2059.0975119099
568	5840840 10352 24350 64089 342 679 338 -4.4201470500988 2.2661025761603 5.9466118949288 204.24417419765
567	5851192 9739 24339 64089 341 679 339 0 13.999522534604 3259.8991839442 39724.407839233
566	5860931 10164 24328 64089 340 679 340 1096.864354765 1700.965658295 455471.65795922 617788516.42051
565	5871095 10168 24328 64089 340 679 340 203.75650468864 2438.4434642604 571992.12257092 1143313753.843
574	5881263 9249 29363 64111 345 681 337 0.973 8.582008230487 685.17739388684 2098.3470115843
573	5890512 10321 29363 64111 345 681 337 -2.4006442311127 2.2809308103914 6.3731215080835 181.71898591815
572	5900833 9732 24684 64111 344 681 338 0 13.998971471305 3261.7715092711 39924.432679718
571	5910565 10131 24672 64111 343 681 339 1096.2426886307 1701.0872889925 454041.81468076 615703010.68264
570	5920696 10136 24672 64111 343 681 339 203.42216155189 2438.4101452953 569397.41775295 1137119810.8561
579	5930832 9204 30621 64133 348 683 336 0.973 8.8934582309003 689.00684503702 2167.1005326058
578	5940036 10311 30621 64133 348 683 336 -4.3905783305094 2.3029425541172 6.2979997235087 194.48209874318
577	5950347 9734 30610 64133 347 683 337 0 13.997742601549 3265.5261894188 40122.631804093
576	5960081 10060 29374 64133 346 683 338 1096.0833799727 1701.0514517836 452667.17463349 613791385.92554
575	5970141 10097 29374 64133 346 683 338 203.16949618503 2438.3349884618 566663.98518504 1130639689.8974
639	5980238 9207 31371 64299 384 698 315 0.973 8.3146549884355 648.17785475629 1835.9857368923
638	5989445 10139 31371 64299 384 698 315 -4.4246111020412 2.2569055414153 5.7614274272672 210.33436530262
637	5999584 9496 31360 64299 383 698 316 1.2619455459749e-05 13.99905347941 3259.1135747656 37725.174103529
636	6009080 9477 31349 64299 382 698 317 1096.8262106832 1700.9664429426 421377.86326434 568051278.87727
635	6018557 9480 31349 64299 382 698 317 203.75229304505 2438.3507473152 507522.92357825 984832333.07741
634	6028037 9200 31338 64321 381 700 320 0.973 9.555667026103 657.12149757466 1965.7734029193
633	6037237 10256 31338 64321 381 700 320 -4.4956157564614 2.2609873002977 5.9282798228506 182.06848910205
632	6047493 9615 31327 64321 380 700 321 7.5411013943426e-05 13.9996575263 3361.0026799538 39472.628209638
631	6057108 9628 31316 64321 379 700 322 1096.1349535566 1748.4508032613 430318.06380628 583887830.65726
630	6066736 9623 31316 64321 379 700 322 203.49391789455 2438.7580070436 519208.22084693 1013519788.8172
604	6076359 9423 31131 64359 363 703 341 0.973 8.206925061443 679.87057277204 1873.7106855695
603	6085782 10074 31131 64359 363 703 341 -4.5 2.370372612467 7.0065345472932 203.59916068478
602	6095856 9459 31120 64359 362 703 342 0 13.998619753793 3407.914178709 45054.020283022
601	6105315 10244 31109 64359 361 703 343 1218.0018786769 2120.9297818691 581676.33484008 1014821337.3973
600	6115559 10261 31109 64359 361 703 343 201.0104183309 2450.6249062724 593744.12689486 1234576000.3392
609	6125820 9435 31165 64383 366 705 340 0.973 9.1842858223176 680.16323548885 1911.1348124035
608	6135255 10297 31165 64383 366 705 340 -3.2486634952789 2.4120267764269 7.3057225733825 174.89905035821
607	6145552 9673 31154 64383 365 705 341 0 13.999967951321 3409.2266110367 45117.243998927
606	6155225 10235 31143 64383 364 705 342 1218.3528334051 2120.628846678 579848.39675671 1011273552.7566
605	6165460 10226 31143 64383 364 705 342 199.74254860228 2450.4177681477 591218.57465731 1228574273.2107
614	6175686 9466 31198 64405 369 707 339 0.973 8.7251045401144 674.95115837094 1831.3972276995
613	6185152 10343 31198 64405 369 707 339 -3.08 2.2294287542393 6.7660569138711 155.48684652025
612	6195495 9742 31187 64405 368 707 340 0 13.999041751656 3408.5343225352 44967.85146218
611	6205237 10188 31176 64405 367 707 341 1217.7939070575 2120.7946281172 577626.48022899 1006389888.0814
610	6215425 10195 31176 64405 367 707 341 199.52562444797 2450.5922978367 588350.24331368 1221393359.6308
619	6225620 9422 31231 64416 372 708 337 0.973 8.7135313678163 665.49146070399 1776.3472838939
618	6235042 10344 31231 64416 372 708 337 -3.2153883242933 2.1700836681458 5.6922464100229 136.34723181543
617	6245386 9732 31220 64416 371 708 338 0 13.999412208651 3402.8620570672 44932.323893262
616	6255118 10135 31209 64416 370 708 339 1217.2998289438 2120.9582286729 574119.81403235 999963217.06073
615	6265253 10132 31209 64416 370 708 339 204.05228214944 2450.5752925958 585343.48099183 1214453359.3121
624	6275385 9364 31265 64438 375 710 336 0.973 9.1193118090387 660.77551257624 1770.8980634165
623	6284749 10352 31265 64438 375 710 336 -4.450121523696 2.1577355293883 5.815118076015 133.48759438758
622	6295101 9742 31254 64438 374 710 337 0 13.999488828632 3404.6333451667 44881.874245291
621	6304843 10096 31242 64438 373 710 338 1216.2361849612 2120.6606681747 571783.06092565 994715401.50554
620	6314939 10106 31242 64438 373 710 338 203.51593312284 2450.6586459463 582159.50981961 1206484056.2047
629	6325045 9368 31303 64460 378 712 335 0.973 8.2864582982302 656.29048142161 1725.6253663529
628	6334413 10323 31303 64460 378 712 335 -4.4602325429821 2.084367778888 6.4659717247088 125.1112823089
627	6344736 9744 31292 64460 377 712 336 0 13.999148960067 3406.3917378853 44806.780738457
626	6354480 10072 31281 64460 376 712 337 1216.3191826083 2120.824975607 569495.71791109 989661680.0715
625	6364552 10080 31281 64460 376 712 337 202.91591130127 2450.648561429 579240.32756797 1199084352.9601
679	6374632 8616 38089 64482 408 714 307 0.973 8.2026672285331 634.9542944027 1734.3617999004
678	6383248 9462 38089 64482 408 714 307 -3.79 2.3475265097665 7.1709092798202 135.6087120253
677	6392710 8907 38078 64482 407 714 308 0 13.999665379631 3409.0587212104 44855.37138358
676	6401617 9237 38067 64482 406 714 309 1217.4497759501 2120.8558506835 515095.1608924 884185367.76439
675	6410854 9252 38067 64482 406 714 309 200.04747456952 2450.6052547338 510078.62458183 1029177827.04
684	6420106 8553 38122 64493 411 715 305 0.973 8.4102966919813 624.43642269161 1694.1977053101
683	6428659 9455 38122 64493 411 715 305 -2.9563187368334 2.2360333886673 5.0751576257326 123.84817692565
682	6438114 8875 38111 64493 410 715 306 0 13.999984161339 3400.478048088 44748.534433361
681	6446989 9179 38100 64493 409 715 307 1218.2370741786 2120.692946027 511710.08156399 878259252.73905
680	6456168 9185 38100 64493 409 715 307 204.32250948763 2450.6013084132 506815.10309564 1021556088.3963
689	6465353 8569 38155 64515 414 717 304 0.973 8.5176363857188 623.16770945268 1663.2227601654
688	6473922 9473 38155 64515 414 717 304 -4.4508363147744 2.1862192580732 6.1425945421748 121.39515582091
687	6483395 8914 38144 64515 413 717 305 0 13.999526172029 3404.9277747234 44678.638828447
686	6492309 9147 38133 64515 412 717 306 1216.5370703731 2120.8564453926 509366.22075607 873091864.78981
685	6501456 9148 38133 64515 412 717 306 203.43237787043 2450.6255042708 503527.82554995 1013088154.0557
694	6510604 8481 38188 64537 417 719 303 0.973 8.9825884450701 617.67840591769 1658.3148552703
693	6519085 9486 38188 64537 417 719 303 -3.8569104971441 2.2158229553653 5.696124567108 113.86249907296
692	6528571 8905 38177 64537 416 719 304 0 13.999541670114 3406.622331643 44662.449794177
691	6537476 9115 38166 64537 415 719 305 1216.1567093339 2120.6408816604 507378.5023638 869137938.88314
690	6546591 9117 38166 64537 415 719 305 202.99239920254 2450.4495258828 500580.50507822 1005665142.4096
699	6555708 8440 38221 64559 420 721 302 0.973 7.8970800733904 619.33087020473 1687.5646459033
698	6564148 9475 38221 64559 420 721 302 -4.4556849066467 2.1759910875605 7.5618659084227 120.93887720204
697	6573623 8888 38210 64559 419 721 303 0 13.999697746639 3409.5838925541 44649.013859385
696	6582511 9092 38199 64559 418 721 304 1218.0748149734 2120.7288835142 505174.15323959 864421830.30844
695	6591603 9079 38199 64559 418 721 304 199.95925629814 2450.603474976 497268.64844496 997311810.84403
644	6600682 9296 31404 64570 387 722 336 0.973 8.5326184288046 685.11098628456 2093.3964871503
643	6609978 10416 31404 64570 387 722 336 -4.5 2.1698571187956 5.539911867517 260.07911321601
642	6620394 9831 31393 64570 386 722 337 0 13.999630663102 3259.232068216 38374.572938296
641	6630225 10100 31382 64570 385 722 338 1096.2138362695 1701.1286704727 450704.79294173 609275988.16386
640	6640325 10076 31382 64570 385 722 338 204.30476389907 2438.3983844591 536923.42828776 1024838606.7923
649	6650401 9255 31437 64592 390 724 335 0.973 9.2343037554432 677.16838229847 2070.3061033001
648	6659656 10615 31437 64592 390 724 335 -3.148958149423 2.2261265903478 5.521992631769 195.79771116032
647	6670271 10017 31426 64592 389 724 336 0 13.99479380544 3262.0780193849 38255.625757079
646	6680288 10075 31415 64592 388 724 337 1096.7434600107 1701.08121558 449013.26246684 606353285.27317
645	6690363 10067 31415 64592 388 724 337 203.80350227701 2438.5151993074 533502.13868238 1016793950.5012
344	6700430 13773 13033 64619 207 726 520 0.973 8.3473216823233 964.77098943246 2845.9366367546
343	6714203 14821 13033 64619 207 726 520 -4.5 2.2709972402826 5.5022344334296 354.21158526468
342	6729024 14072 13022 64619 206 726 521 0 13.999053940331 3795.24340971 48494.679799311
341	6743096 15594 13011 64619 205 726 522 1120.8513943749 1908.3500441918 793223.12038717 1227751860.3979
340	6758690 15586 13011 64619 205 726 522 203.27091064164 2414.8817292058 959872.73308963 1990957696.4087
654	6774276 9453 31470 64731 393 736 344 0.973 7.8775249898516 696.96044750579 2077.3995513934
653	6783729 10223 31470 64731 393 736 344 -4.5 2.3504694757755 6.1337807387869 247.68860466135
652	6793952 9645 31459 64731 392 736 345 0 13.998456606728 3264.4330306523 40278.016479714
651	6803597 10349 31448 64731 391 736 346 1096.0347352372 1701.1219159821 465892.85156322 635169846.98988
650	6813946 10352 31448 64731 391 736 346 202.9429221641 2438.3485477611 589760.06325506 1190446346.6296
659	6824298 9410 31504 64753 396 738 343 0.973 9.2695344055327 693.95360285659 2141.1469299364
658	6833708 10423 31504 64753 396 738 343 -3.410982121252 2.3075711221946 5.7537419732814 206.27531971957
657	6844131 9814 31493 64753 395 738 344 0 13.998743384916 3263.0032870994 40423.299249129
656	6853945 10317 31482 64753 394 738 345 1096.3677204419 1701.0056755841 464342.72875323 632737497.75182
655	6864262 10317 31482 64753 394 738 345 203.46209022729 2438.3398434498 587523.23566086 1184819372.7688
